
---------- Begin Simulation Statistics ----------
final_tick                               381243854500                       # Number of ticks from beginning of simulation (restored from checkpoints and never reset)
host_inst_rate                                 327317                       # Simulator instruction rate (inst/s)
host_mem_usage                                 828164                       # Number of bytes of host memory used
host_op_rate                                   411744                       # Simulator op (including micro ops) rate (op/s)
host_seconds                                   305.51                       # Real time elapsed on the host
host_tick_rate                             1247873100                       # Simulator tick rate (ticks/s)
sim_freq                                 1000000000000                       # Frequency of simulated ticks
sim_insts                                   100000001                       # Number of instructions simulated
sim_ops                                     125793993                       # Number of ops (including micro ops) simulated
sim_seconds                                  0.381244                       # Number of seconds simulated
sim_ticks                                381243854500                       # Number of ticks simulated
system.cpu.Branches                           5058678                       # Number of branches fetched
system.cpu.committedInsts                   100000001                       # Number of instructions committed
system.cpu.committedOps                     125793993                       # Number of ops (including micro ops) committed
system.cpu.dtb.rdAccesses                    47374248                       # TLB accesses on read requests
system.cpu.dtb.rdMisses                        154484                       # TLB misses on read requests
system.cpu.dtb.wrAccesses                    17694721                       # TLB accesses on write requests
system.cpu.dtb.wrMisses                        442815                       # TLB misses on write requests
system.cpu.idle_fraction                            0                       # Percentage of idle cycles
system.cpu.itb.rdAccesses                           0                       # TLB accesses on read requests
system.cpu.itb.rdMisses                             0                       # TLB misses on read requests
system.cpu.itb.wrAccesses                   146030520                       # TLB accesses on write requests
system.cpu.itb.wrMisses                            47                       # TLB misses on write requests
system.cpu.not_idle_fraction                        1                       # Percentage of non-idle cycles
system.cpu.numCycles                        762487709                       # number of cpu cycles simulated
system.cpu.numWorkItemsCompleted                    0                       # number of work items this cpu completed
system.cpu.numWorkItemsStarted                      0                       # number of work items this cpu started
system.cpu.num_busy_cycles                  762487709                       # Number of busy cycles
system.cpu.num_cc_register_reads             26575754                       # number of times the CC registers were read
system.cpu.num_cc_register_writes            36968347                       # number of times the CC registers were written
system.cpu.num_conditional_control_insts      3953386                       # number of instructions that are conditional controls
system.cpu.num_fp_alu_accesses                    835                       # Number of float alu accesses
system.cpu.num_fp_insts                           835                       # number of float instructions
system.cpu.num_fp_register_reads                 1311                       # number of times the floating registers were read
system.cpu.num_fp_register_writes                 577                       # number of times the floating registers were written
system.cpu.num_func_calls                       69318                       # number of times a function call or return occured
system.cpu.num_idle_cycles                          0                       # Number of idle cycles
system.cpu.num_int_alu_accesses             124882992                       # Number of integer alu accesses
system.cpu.num_int_insts                    124882992                       # number of integer instructions
system.cpu.num_int_register_reads           314740254                       # number of times the integer registers were read
system.cpu.num_int_register_writes          102332038                       # number of times the integer registers were written
system.cpu.num_load_insts                    47374238                       # Number of load instructions
system.cpu.num_mem_refs                      65068958                       # number of memory refs
system.cpu.num_store_insts                   17694720                       # Number of store instructions
system.cpu.num_vec_alu_accesses                     0                       # Number of vector alu accesses
system.cpu.num_vec_insts                            0                       # number of vector instructions
system.cpu.num_vec_register_reads                   0                       # number of times the vector registers were read
system.cpu.num_vec_register_writes                  0                       # number of times the vector registers were written
system.cpu.op_class::No_OpClass               8069700      6.07%      6.07% # Class of executed instruction
system.cpu.op_class::IntAlu                  59683295     44.89%     50.96% # Class of executed instruction
system.cpu.op_class::IntMult                   130946      0.10%     51.06% # Class of executed instruction
system.cpu.op_class::IntDiv                        70      0.00%     51.06% # Class of executed instruction
system.cpu.op_class::FloatAdd                      21      0.00%     51.06% # Class of executed instruction
system.cpu.op_class::FloatCmp                       0      0.00%     51.06% # Class of executed instruction
system.cpu.op_class::FloatCvt                       0      0.00%     51.06% # Class of executed instruction
system.cpu.op_class::FloatMult                      0      0.00%     51.06% # Class of executed instruction
system.cpu.op_class::FloatMultAcc                   0      0.00%     51.06% # Class of executed instruction
system.cpu.op_class::FloatDiv                       0      0.00%     51.06% # Class of executed instruction
system.cpu.op_class::FloatMisc                      0      0.00%     51.06% # Class of executed instruction
system.cpu.op_class::FloatSqrt                      0      0.00%     51.06% # Class of executed instruction
system.cpu.op_class::SimdAdd                        0      0.00%     51.06% # Class of executed instruction
system.cpu.op_class::SimdAddAcc                     0      0.00%     51.06% # Class of executed instruction
system.cpu.op_class::SimdAlu                      142      0.00%     51.06% # Class of executed instruction
system.cpu.op_class::SimdCmp                        0      0.00%     51.06% # Class of executed instruction
system.cpu.op_class::SimdCvt                      126      0.00%     51.06% # Class of executed instruction
system.cpu.op_class::SimdMisc                     241      0.00%     51.06% # Class of executed instruction
system.cpu.op_class::SimdMult                       0      0.00%     51.06% # Class of executed instruction
system.cpu.op_class::SimdMultAcc                    0      0.00%     51.06% # Class of executed instruction
system.cpu.op_class::SimdShift                      0      0.00%     51.06% # Class of executed instruction
system.cpu.op_class::SimdShiftAcc                   0      0.00%     51.06% # Class of executed instruction
system.cpu.op_class::SimdDiv                        0      0.00%     51.06% # Class of executed instruction
system.cpu.op_class::SimdSqrt                       0      0.00%     51.06% # Class of executed instruction
system.cpu.op_class::SimdFloatAdd                   0      0.00%     51.06% # Class of executed instruction
system.cpu.op_class::SimdFloatAlu                   0      0.00%     51.06% # Class of executed instruction
system.cpu.op_class::SimdFloatCmp                   0      0.00%     51.06% # Class of executed instruction
system.cpu.op_class::SimdFloatCvt                   0      0.00%     51.06% # Class of executed instruction
system.cpu.op_class::SimdFloatDiv                   0      0.00%     51.06% # Class of executed instruction
system.cpu.op_class::SimdFloatMisc                  0      0.00%     51.06% # Class of executed instruction
system.cpu.op_class::SimdFloatMult                  0      0.00%     51.06% # Class of executed instruction
system.cpu.op_class::SimdFloatMultAcc               0      0.00%     51.06% # Class of executed instruction
system.cpu.op_class::SimdFloatSqrt                  0      0.00%     51.06% # Class of executed instruction
system.cpu.op_class::SimdReduceAdd                  0      0.00%     51.06% # Class of executed instruction
system.cpu.op_class::SimdReduceAlu                  0      0.00%     51.06% # Class of executed instruction
system.cpu.op_class::SimdReduceCmp                  0      0.00%     51.06% # Class of executed instruction
system.cpu.op_class::SimdFloatReduceAdd             0      0.00%     51.06% # Class of executed instruction
system.cpu.op_class::SimdFloatReduceCmp             0      0.00%     51.06% # Class of executed instruction
system.cpu.op_class::SimdAes                        0      0.00%     51.06% # Class of executed instruction
system.cpu.op_class::SimdAesMix                     0      0.00%     51.06% # Class of executed instruction
system.cpu.op_class::SimdSha1Hash                   0      0.00%     51.06% # Class of executed instruction
system.cpu.op_class::SimdSha1Hash2                  0      0.00%     51.06% # Class of executed instruction
system.cpu.op_class::SimdSha256Hash                 0      0.00%     51.06% # Class of executed instruction
system.cpu.op_class::SimdSha256Hash2                0      0.00%     51.06% # Class of executed instruction
system.cpu.op_class::SimdShaSigma2                  0      0.00%     51.06% # Class of executed instruction
system.cpu.op_class::SimdShaSigma3                  0      0.00%     51.06% # Class of executed instruction
system.cpu.op_class::SimdPredAlu                    0      0.00%     51.06% # Class of executed instruction
system.cpu.op_class::MemRead                 47374156     35.63%     86.69% # Class of executed instruction
system.cpu.op_class::MemWrite                17694556     13.31%    100.00% # Class of executed instruction
system.cpu.op_class::FloatMemRead                  82      0.00%    100.00% # Class of executed instruction
system.cpu.op_class::FloatMemWrite                164      0.00%    100.00% # Class of executed instruction
system.cpu.op_class::IprAccess                      0      0.00%    100.00% # Class of executed instruction
system.cpu.op_class::InstPrefetch                   0      0.00%    100.00% # Class of executed instruction
system.cpu.op_class::total                  132953499                       # Class of executed instruction
system.cpu.workload.numSyscalls                    89                       # Number of system calls
system.membus.snoop_filter.hit_multi_requests            0                       # Number of requests hitting in the snoop filter with multiple (>1) holders of the requested data.
system.membus.snoop_filter.hit_multi_snoops            0                       # Number of snoops hitting in the snoop filter with multiple (>1) holders of the requested data.
system.membus.snoop_filter.hit_single_requests      2192335                       # Number of requests hitting in the snoop filter with a single holder of the requested data.
system.membus.snoop_filter.hit_single_snoops            0                       # Number of snoops hitting in the snoop filter with a single holder of the requested data.
system.membus.snoop_filter.tot_requests       4401599                       # Total number of requests made to the snoop filter.
system.membus.snoop_filter.tot_snoops               0                       # Total number of snoops made to the snoop filter.
system.tol2bus.snoop_filter.hit_multi_requests            1                       # Number of requests hitting in the snoop filter with multiple (>1) holders of the requested data.
system.tol2bus.snoop_filter.hit_multi_snoops            0                       # Number of snoops hitting in the snoop filter with multiple (>1) holders of the requested data.
system.tol2bus.snoop_filter.hit_single_requests      2432516                       # Number of requests hitting in the snoop filter with a single holder of the requested data.
system.tol2bus.snoop_filter.hit_single_snoops        51852                       # Number of snoops hitting in the snoop filter with a single holder of the requested data.
system.tol2bus.snoop_filter.tot_requests      4867595                       # Total number of requests made to the snoop filter.
system.tol2bus.snoop_filter.tot_snoops          51852                       # Total number of snoops made to the snoop filter.
system.membus.trans_dist::ReadResp            1050914                       # Transaction distribution
system.membus.trans_dist::WritebackDirty      1184096                       # Transaction distribution
system.membus.trans_dist::CleanEvict          1008239                       # Transaction distribution
system.membus.trans_dist::ReadExReq           1158350                       # Transaction distribution
system.membus.trans_dist::ReadExResp          1158350                       # Transaction distribution
system.membus.trans_dist::ReadSharedReq       1050914                       # Transaction distribution
system.membus.pkt_count_system.l2.mem_side::system.mem_ctrls.port      6610863                       # Packet count per connected master and slave (bytes)
system.membus.pkt_count_system.l2.mem_side::total      6610863                       # Packet count per connected master and slave (bytes)
system.membus.pkt_count::total                6610863                       # Packet count per connected master and slave (bytes)
system.membus.pkt_size_system.l2.mem_side::system.mem_ctrls.port    217175040                       # Cumulative packet size per connected master and slave (bytes)
system.membus.pkt_size_system.l2.mem_side::total    217175040                       # Cumulative packet size per connected master and slave (bytes)
system.membus.pkt_size::total               217175040                       # Cumulative packet size per connected master and slave (bytes)
system.membus.snoops                                0                       # Total snoops (count)
system.membus.snoopTraffic                          0                       # Total snoop traffic (bytes)
system.membus.snoop_fanout::samples           2209264                       # Request fanout histogram
system.membus.snoop_fanout::mean                    0                       # Request fanout histogram
system.membus.snoop_fanout::stdev                   0                       # Request fanout histogram
system.membus.snoop_fanout::underflows              0      0.00%      0.00% # Request fanout histogram
system.membus.snoop_fanout::0                 2209264    100.00%    100.00% # Request fanout histogram
system.membus.snoop_fanout::1                       0      0.00%    100.00% # Request fanout histogram
system.membus.snoop_fanout::overflows               0      0.00%    100.00% # Request fanout histogram
system.membus.snoop_fanout::min_value               0                       # Request fanout histogram
system.membus.snoop_fanout::max_value               0                       # Request fanout histogram
system.membus.snoop_fanout::total             2209264                       # Request fanout histogram
system.membus.reqLayer2.occupancy          9169733000                       # Layer occupancy (ticks)
system.membus.reqLayer2.utilization               2.4                       # Layer utilization (%)
system.membus.respLayer1.occupancy        11658240750                       # Layer occupancy (ticks)
system.membus.respLayer1.utilization              3.1                       # Layer utilization (%)
system.membus.power_state.pwrStateResidencyTicks::UNDEFINED 381243854500                       # Cumulative time (in ticks) in various power states
system.tol2bus.trans_dist::ReadResp           1192146                       # Transaction distribution
system.tol2bus.trans_dist::WritebackDirty      2606709                       # Transaction distribution
system.tol2bus.trans_dist::WritebackClean            6                       # Transaction distribution
system.tol2bus.trans_dist::CleanEvict         2024116                       # Transaction distribution
system.tol2bus.trans_dist::ReadExReq          1242933                       # Transaction distribution
system.tol2bus.trans_dist::ReadExResp         1242933                       # Transaction distribution
system.tol2bus.trans_dist::ReadCleanReq           521                       # Transaction distribution
system.tol2bus.trans_dist::ReadSharedReq      1191625                       # Transaction distribution
system.tol2bus.pkt_count_system.cpu.icache.mem_side::system.l2.cpu_side         1048                       # Packet count per connected master and slave (bytes)
system.tol2bus.pkt_count_system.cpu.dcache.mem_side::system.l2.cpu_side      7301626                       # Packet count per connected master and slave (bytes)
system.tol2bus.pkt_count::total               7302674                       # Packet count per connected master and slave (bytes)
system.tol2bus.pkt_size_system.cpu.icache.mem_side::system.l2.cpu_side        33728                       # Cumulative packet size per connected master and slave (bytes)
system.tol2bus.pkt_size_system.cpu.dcache.mem_side::system.l2.cpu_side    246858944                       # Cumulative packet size per connected master and slave (bytes)
system.tol2bus.pkt_size::total              246892672                       # Cumulative packet size per connected master and slave (bytes)
system.tol2bus.snoops                         2198315                       # Total snoops (count)
system.tol2bus.snoopTraffic                  75782144                       # Total snoop traffic (bytes)
system.tol2bus.snoop_fanout::samples          4633394                       # Request fanout histogram
system.tol2bus.snoop_fanout::mean            0.011191                       # Request fanout histogram
system.tol2bus.snoop_fanout::stdev           0.105195                       # Request fanout histogram
system.tol2bus.snoop_fanout::underflows             0      0.00%      0.00% # Request fanout histogram
system.tol2bus.snoop_fanout::0                4581541     98.88%     98.88% # Request fanout histogram
system.tol2bus.snoop_fanout::1                  51853      1.12%    100.00% # Request fanout histogram
system.tol2bus.snoop_fanout::2                      0      0.00%    100.00% # Request fanout histogram
system.tol2bus.snoop_fanout::3                      0      0.00%    100.00% # Request fanout histogram
system.tol2bus.snoop_fanout::4                      0      0.00%    100.00% # Request fanout histogram
system.tol2bus.snoop_fanout::overflows              0      0.00%    100.00% # Request fanout histogram
system.tol2bus.snoop_fanout::min_value              0                       # Request fanout histogram
system.tol2bus.snoop_fanout::max_value              1                       # Request fanout histogram
system.tol2bus.snoop_fanout::total            4633394                       # Request fanout histogram
system.tol2bus.reqLayer0.occupancy         3856416500                       # Layer occupancy (ticks)
system.tol2bus.reqLayer0.utilization              1.0                       # Layer utilization (%)
system.tol2bus.respLayer1.occupancy        3651837000                       # Layer occupancy (ticks)
system.tol2bus.respLayer1.utilization             1.0                       # Layer utilization (%)
system.tol2bus.respLayer0.occupancy            781500                       # Layer occupancy (ticks)
system.tol2bus.respLayer0.utilization             0.0                       # Layer utilization (%)
system.tol2bus.power_state.pwrStateResidencyTicks::UNDEFINED 381243854500                       # Cumulative time (in ticks) in various power states
system.voltage_domain.voltage                       1                       # Voltage in Volts
system.clk_domain.clock                          1000                       # Clock period in ticks
system.l2.demand_hits::.cpu.inst                    1                       # number of demand (read+write) hits
system.l2.demand_hits::.cpu.data               225814                       # number of demand (read+write) hits
system.l2.demand_hits::total                   225815                       # number of demand (read+write) hits
system.l2.overall_hits::.cpu.inst                   1                       # number of overall hits
system.l2.overall_hits::.cpu.data              225814                       # number of overall hits
system.l2.overall_hits::total                  225815                       # number of overall hits
system.l2.demand_misses::.cpu.inst                520                       # number of demand (read+write) misses
system.l2.demand_misses::.cpu.data            2208744                       # number of demand (read+write) misses
system.l2.demand_misses::total                2209264                       # number of demand (read+write) misses
system.l2.overall_misses::.cpu.inst               520                       # number of overall misses
system.l2.overall_misses::.cpu.data           2208744                       # number of overall misses
system.l2.overall_misses::total               2209264                       # number of overall misses
system.l2.demand_miss_latency::.cpu.inst     39831500                       # number of demand (read+write) miss cycles
system.l2.demand_miss_latency::.cpu.data 169167739500                       # number of demand (read+write) miss cycles
system.l2.demand_miss_latency::total     169207571000                       # number of demand (read+write) miss cycles
system.l2.overall_miss_latency::.cpu.inst     39831500                       # number of overall miss cycles
system.l2.overall_miss_latency::.cpu.data 169167739500                       # number of overall miss cycles
system.l2.overall_miss_latency::total    169207571000                       # number of overall miss cycles
system.l2.demand_accesses::.cpu.inst              521                       # number of demand (read+write) accesses
system.l2.demand_accesses::.cpu.data          2434558                       # number of demand (read+write) accesses
system.l2.demand_accesses::total              2435079                       # number of demand (read+write) accesses
system.l2.overall_accesses::.cpu.inst             521                       # number of overall (read+write) accesses
system.l2.overall_accesses::.cpu.data         2434558                       # number of overall (read+write) accesses
system.l2.overall_accesses::total             2435079                       # number of overall (read+write) accesses
system.l2.demand_miss_rate::.cpu.inst        0.998081                       # miss rate for demand accesses
system.l2.demand_miss_rate::.cpu.data        0.907246                       # miss rate for demand accesses
system.l2.demand_miss_rate::total            0.907266                       # miss rate for demand accesses
system.l2.overall_miss_rate::.cpu.inst       0.998081                       # miss rate for overall accesses
system.l2.overall_miss_rate::.cpu.data       0.907246                       # miss rate for overall accesses
system.l2.overall_miss_rate::total           0.907266                       # miss rate for overall accesses
system.l2.demand_avg_miss_latency::.cpu.inst 76599.038462                       # average overall miss latency
system.l2.demand_avg_miss_latency::.cpu.data 76590.016543                       # average overall miss latency
system.l2.demand_avg_miss_latency::total 76590.018667                       # average overall miss latency
system.l2.overall_avg_miss_latency::.cpu.inst 76599.038462                       # average overall miss latency
system.l2.overall_avg_miss_latency::.cpu.data 76590.016543                       # average overall miss latency
system.l2.overall_avg_miss_latency::total 76590.018667                       # average overall miss latency
system.l2.blocked_cycles::no_mshrs                  0                       # number of cycles access was blocked
system.l2.blocked_cycles::no_targets                0                       # number of cycles access was blocked
system.l2.blocked::no_mshrs                         0                       # number of cycles access was blocked
system.l2.blocked::no_targets                       0                       # number of cycles access was blocked
system.l2.avg_blocked_cycles::no_mshrs            nan                       # average number of cycles each access was blocked
system.l2.avg_blocked_cycles::no_targets          nan                       # average number of cycles each access was blocked
system.l2.writebacks::.writebacks             1184096                       # number of writebacks
system.l2.writebacks::total                   1184096                       # number of writebacks
system.l2.demand_mshr_misses::.cpu.inst           520                       # number of demand (read+write) MSHR misses
system.l2.demand_mshr_misses::.cpu.data       2208744                       # number of demand (read+write) MSHR misses
system.l2.demand_mshr_misses::total           2209264                       # number of demand (read+write) MSHR misses
system.l2.overall_mshr_misses::.cpu.inst          520                       # number of overall MSHR misses
system.l2.overall_mshr_misses::.cpu.data      2208744                       # number of overall MSHR misses
system.l2.overall_mshr_misses::total          2209264                       # number of overall MSHR misses
system.l2.demand_mshr_miss_latency::.cpu.inst     34631500                       # number of demand (read+write) MSHR miss cycles
system.l2.demand_mshr_miss_latency::.cpu.data 147080299500                       # number of demand (read+write) MSHR miss cycles
system.l2.demand_mshr_miss_latency::total 147114931000                       # number of demand (read+write) MSHR miss cycles
system.l2.overall_mshr_miss_latency::.cpu.inst     34631500                       # number of overall MSHR miss cycles
system.l2.overall_mshr_miss_latency::.cpu.data 147080299500                       # number of overall MSHR miss cycles
system.l2.overall_mshr_miss_latency::total 147114931000                       # number of overall MSHR miss cycles
system.l2.demand_mshr_miss_rate::.cpu.inst     0.998081                       # mshr miss rate for demand accesses
system.l2.demand_mshr_miss_rate::.cpu.data     0.907246                       # mshr miss rate for demand accesses
system.l2.demand_mshr_miss_rate::total       0.907266                       # mshr miss rate for demand accesses
system.l2.overall_mshr_miss_rate::.cpu.inst     0.998081                       # mshr miss rate for overall accesses
system.l2.overall_mshr_miss_rate::.cpu.data     0.907246                       # mshr miss rate for overall accesses
system.l2.overall_mshr_miss_rate::total      0.907266                       # mshr miss rate for overall accesses
system.l2.demand_avg_mshr_miss_latency::.cpu.inst 66599.038462                       # average overall mshr miss latency
system.l2.demand_avg_mshr_miss_latency::.cpu.data 66590.016543                       # average overall mshr miss latency
system.l2.demand_avg_mshr_miss_latency::total 66590.018667                       # average overall mshr miss latency
system.l2.overall_avg_mshr_miss_latency::.cpu.inst 66599.038462                       # average overall mshr miss latency
system.l2.overall_avg_mshr_miss_latency::.cpu.data 66590.016543                       # average overall mshr miss latency
system.l2.overall_avg_mshr_miss_latency::total 66590.018667                       # average overall mshr miss latency
system.l2.replacements                        2198315                       # number of replacements
system.l2.WritebackDirty_hits::.writebacks      1422613                       # number of WritebackDirty hits
system.l2.WritebackDirty_hits::total          1422613                       # number of WritebackDirty hits
system.l2.WritebackDirty_accesses::.writebacks      1422613                       # number of WritebackDirty accesses(hits+misses)
system.l2.WritebackDirty_accesses::total      1422613                       # number of WritebackDirty accesses(hits+misses)
system.l2.WritebackClean_hits::.writebacks            6                       # number of WritebackClean hits
system.l2.WritebackClean_hits::total                6                       # number of WritebackClean hits
system.l2.WritebackClean_accesses::.writebacks            6                       # number of WritebackClean accesses(hits+misses)
system.l2.WritebackClean_accesses::total            6                       # number of WritebackClean accesses(hits+misses)
system.l2.CleanEvict_mshr_misses::.writebacks        45872                       # number of CleanEvict MSHR misses
system.l2.CleanEvict_mshr_misses::total         45872                       # number of CleanEvict MSHR misses
system.l2.CleanEvict_mshr_miss_rate::.writebacks          inf                       # mshr miss rate for CleanEvict accesses
system.l2.CleanEvict_mshr_miss_rate::total          inf                       # mshr miss rate for CleanEvict accesses
system.l2.ReadExReq_hits::.cpu.data             84583                       # number of ReadExReq hits
system.l2.ReadExReq_hits::total                 84583                       # number of ReadExReq hits
system.l2.ReadExReq_misses::.cpu.data         1158350                       # number of ReadExReq misses
system.l2.ReadExReq_misses::total             1158350                       # number of ReadExReq misses
system.l2.ReadExReq_miss_latency::.cpu.data  87315420500                       # number of ReadExReq miss cycles
system.l2.ReadExReq_miss_latency::total   87315420500                       # number of ReadExReq miss cycles
system.l2.ReadExReq_accesses::.cpu.data       1242933                       # number of ReadExReq accesses(hits+misses)
system.l2.ReadExReq_accesses::total           1242933                       # number of ReadExReq accesses(hits+misses)
system.l2.ReadExReq_miss_rate::.cpu.data     0.931949                       # miss rate for ReadExReq accesses
system.l2.ReadExReq_miss_rate::total         0.931949                       # miss rate for ReadExReq accesses
system.l2.ReadExReq_avg_miss_latency::.cpu.data 75379.134545                       # average ReadExReq miss latency
system.l2.ReadExReq_avg_miss_latency::total 75379.134545                       # average ReadExReq miss latency
system.l2.ReadExReq_mshr_misses::.cpu.data      1158350                       # number of ReadExReq MSHR misses
system.l2.ReadExReq_mshr_misses::total        1158350                       # number of ReadExReq MSHR misses
system.l2.ReadExReq_mshr_miss_latency::.cpu.data  75731920500                       # number of ReadExReq MSHR miss cycles
system.l2.ReadExReq_mshr_miss_latency::total  75731920500                       # number of ReadExReq MSHR miss cycles
system.l2.ReadExReq_mshr_miss_rate::.cpu.data     0.931949                       # mshr miss rate for ReadExReq accesses
system.l2.ReadExReq_mshr_miss_rate::total     0.931949                       # mshr miss rate for ReadExReq accesses
system.l2.ReadExReq_avg_mshr_miss_latency::.cpu.data 65379.134545                       # average ReadExReq mshr miss latency
system.l2.ReadExReq_avg_mshr_miss_latency::total 65379.134545                       # average ReadExReq mshr miss latency
system.l2.ReadCleanReq_hits::.cpu.inst              1                       # number of ReadCleanReq hits
system.l2.ReadCleanReq_hits::total                  1                       # number of ReadCleanReq hits
system.l2.ReadCleanReq_misses::.cpu.inst          520                       # number of ReadCleanReq misses
system.l2.ReadCleanReq_misses::total              520                       # number of ReadCleanReq misses
system.l2.ReadCleanReq_miss_latency::.cpu.inst     39831500                       # number of ReadCleanReq miss cycles
system.l2.ReadCleanReq_miss_latency::total     39831500                       # number of ReadCleanReq miss cycles
system.l2.ReadCleanReq_accesses::.cpu.inst          521                       # number of ReadCleanReq accesses(hits+misses)
system.l2.ReadCleanReq_accesses::total            521                       # number of ReadCleanReq accesses(hits+misses)
system.l2.ReadCleanReq_miss_rate::.cpu.inst     0.998081                       # miss rate for ReadCleanReq accesses
system.l2.ReadCleanReq_miss_rate::total      0.998081                       # miss rate for ReadCleanReq accesses
system.l2.ReadCleanReq_avg_miss_latency::.cpu.inst 76599.038462                       # average ReadCleanReq miss latency
system.l2.ReadCleanReq_avg_miss_latency::total 76599.038462                       # average ReadCleanReq miss latency
system.l2.ReadCleanReq_mshr_misses::.cpu.inst          520                       # number of ReadCleanReq MSHR misses
system.l2.ReadCleanReq_mshr_misses::total          520                       # number of ReadCleanReq MSHR misses
system.l2.ReadCleanReq_mshr_miss_latency::.cpu.inst     34631500                       # number of ReadCleanReq MSHR miss cycles
system.l2.ReadCleanReq_mshr_miss_latency::total     34631500                       # number of ReadCleanReq MSHR miss cycles
system.l2.ReadCleanReq_mshr_miss_rate::.cpu.inst     0.998081                       # mshr miss rate for ReadCleanReq accesses
system.l2.ReadCleanReq_mshr_miss_rate::total     0.998081                       # mshr miss rate for ReadCleanReq accesses
system.l2.ReadCleanReq_avg_mshr_miss_latency::.cpu.inst 66599.038462                       # average ReadCleanReq mshr miss latency
system.l2.ReadCleanReq_avg_mshr_miss_latency::total 66599.038462                       # average ReadCleanReq mshr miss latency
system.l2.ReadSharedReq_hits::.cpu.data        141231                       # number of ReadSharedReq hits
system.l2.ReadSharedReq_hits::total            141231                       # number of ReadSharedReq hits
system.l2.ReadSharedReq_misses::.cpu.data      1050394                       # number of ReadSharedReq misses
system.l2.ReadSharedReq_misses::total         1050394                       # number of ReadSharedReq misses
system.l2.ReadSharedReq_miss_latency::.cpu.data  81852319000                       # number of ReadSharedReq miss cycles
system.l2.ReadSharedReq_miss_latency::total  81852319000                       # number of ReadSharedReq miss cycles
system.l2.ReadSharedReq_accesses::.cpu.data      1191625                       # number of ReadSharedReq accesses(hits+misses)
system.l2.ReadSharedReq_accesses::total       1191625                       # number of ReadSharedReq accesses(hits+misses)
system.l2.ReadSharedReq_miss_rate::.cpu.data     0.881480                       # miss rate for ReadSharedReq accesses
system.l2.ReadSharedReq_miss_rate::total     0.881480                       # miss rate for ReadSharedReq accesses
system.l2.ReadSharedReq_avg_miss_latency::.cpu.data 77925.348964                       # average ReadSharedReq miss latency
system.l2.ReadSharedReq_avg_miss_latency::total 77925.348964                       # average ReadSharedReq miss latency
system.l2.ReadSharedReq_mshr_misses::.cpu.data      1050394                       # number of ReadSharedReq MSHR misses
system.l2.ReadSharedReq_mshr_misses::total      1050394                       # number of ReadSharedReq MSHR misses
system.l2.ReadSharedReq_mshr_miss_latency::.cpu.data  71348379000                       # number of ReadSharedReq MSHR miss cycles
system.l2.ReadSharedReq_mshr_miss_latency::total  71348379000                       # number of ReadSharedReq MSHR miss cycles
system.l2.ReadSharedReq_mshr_miss_rate::.cpu.data     0.881480                       # mshr miss rate for ReadSharedReq accesses
system.l2.ReadSharedReq_mshr_miss_rate::total     0.881480                       # mshr miss rate for ReadSharedReq accesses
system.l2.ReadSharedReq_avg_mshr_miss_latency::.cpu.data 67925.348964                       # average ReadSharedReq mshr miss latency
system.l2.ReadSharedReq_avg_mshr_miss_latency::total 67925.348964                       # average ReadSharedReq mshr miss latency
system.l2.power_state.pwrStateResidencyTicks::UNDEFINED 381243854500                       # Cumulative time (in ticks) in various power states
system.l2.tags.tagsinuse                 15510.573584                       # Cycle average of tags in use
system.l2.tags.total_refs                     4821722                       # Total number of references to valid blocks.
system.l2.tags.sampled_refs                   2214699                       # Sample count of references to valid blocks.
system.l2.tags.avg_refs                      2.177146                       # Average number of references to valid blocks.
system.l2.tags.warmup_cycle                     77000                       # Cycle when the warmup percentage was hit.
system.l2.tags.occ_blocks::.writebacks     104.756986                       # Average occupied blocks per requestor
system.l2.tags.occ_blocks::.cpu.inst        23.073869                       # Average occupied blocks per requestor
system.l2.tags.occ_blocks::.cpu.data     15382.742729                       # Average occupied blocks per requestor
system.l2.tags.occ_percent::.writebacks      0.006394                       # Average percentage of cache occupancy
system.l2.tags.occ_percent::.cpu.inst        0.001408                       # Average percentage of cache occupancy
system.l2.tags.occ_percent::.cpu.data        0.938888                       # Average percentage of cache occupancy
system.l2.tags.occ_percent::total            0.946690                       # Average percentage of cache occupancy
system.l2.tags.occ_task_id_blocks::1024         16384                       # Occupied blocks per task id
system.l2.tags.age_task_id_blocks_1024::0           16                       # Occupied blocks per task id
system.l2.tags.age_task_id_blocks_1024::1          126                       # Occupied blocks per task id
system.l2.tags.age_task_id_blocks_1024::2         1060                       # Occupied blocks per task id
system.l2.tags.age_task_id_blocks_1024::3         7596                       # Occupied blocks per task id
system.l2.tags.age_task_id_blocks_1024::4         7586                       # Occupied blocks per task id
system.l2.tags.occ_task_id_percent::1024            1                       # Percentage of cache occupancy per task id
system.l2.tags.tag_accesses                  11949887                       # Number of tag accesses
system.l2.tags.data_accesses                 11949887                       # Number of data accesses
system.l2.tags.power_state.pwrStateResidencyTicks::UNDEFINED 381243854500                       # Cumulative time (in ticks) in various power states
system.cpu_voltage_domain.voltage                   1                       # Voltage in Volts
system.mem_ctrls.bytes_read::.cpu.inst          33280                       # Number of bytes read from this memory
system.mem_ctrls.bytes_read::.cpu.data      141359616                       # Number of bytes read from this memory
system.mem_ctrls.bytes_read::total          141392896                       # Number of bytes read from this memory
system.mem_ctrls.bytes_inst_read::.cpu.inst        33280                       # Number of instructions bytes read from this memory
system.mem_ctrls.bytes_inst_read::total         33280                       # Number of instructions bytes read from this memory
system.mem_ctrls.bytes_written::.writebacks     75782144                       # Number of bytes written to this memory
system.mem_ctrls.bytes_written::total        75782144                       # Number of bytes written to this memory
system.mem_ctrls.num_reads::.cpu.inst             520                       # Number of read requests responded to by this memory
system.mem_ctrls.num_reads::.cpu.data         2208744                       # Number of read requests responded to by this memory
system.mem_ctrls.num_reads::total             2209264                       # Number of read requests responded to by this memory
system.mem_ctrls.num_writes::.writebacks      1184096                       # Number of write requests responded to by this memory
system.mem_ctrls.num_writes::total            1184096                       # Number of write requests responded to by this memory
system.mem_ctrls.bw_read::.cpu.inst             87293                       # Total read bandwidth from this memory (bytes/s)
system.mem_ctrls.bw_read::.cpu.data         370785297                       # Total read bandwidth from this memory (bytes/s)
system.mem_ctrls.bw_read::total             370872591                       # Total read bandwidth from this memory (bytes/s)
system.mem_ctrls.bw_inst_read::.cpu.inst        87293                       # Instruction read bandwidth from this memory (bytes/s)
system.mem_ctrls.bw_inst_read::total            87293                       # Instruction read bandwidth from this memory (bytes/s)
system.mem_ctrls.bw_write::.writebacks      198776041                       # Write bandwidth from this memory (bytes/s)
system.mem_ctrls.bw_write::total            198776041                       # Write bandwidth from this memory (bytes/s)
system.mem_ctrls.bw_total::.writebacks      198776041                       # Total bandwidth to/from this memory (bytes/s)
system.mem_ctrls.bw_total::.cpu.inst            87293                       # Total bandwidth to/from this memory (bytes/s)
system.mem_ctrls.bw_total::.cpu.data        370785297                       # Total bandwidth to/from this memory (bytes/s)
system.mem_ctrls.bw_total::total            569648632                       # Total bandwidth to/from this memory (bytes/s)
system.mem_ctrls.avgPriority_.writebacks::samples   1184093.00                       # Average QoS priority value for accepted requests
system.mem_ctrls.avgPriority_.cpu.inst::samples       520.00                       # Average QoS priority value for accepted requests
system.mem_ctrls.avgPriority_.cpu.data::samples   2208529.00                       # Average QoS priority value for accepted requests
system.mem_ctrls.priorityMinLatency      0.000000018750                       # per QoS priority minimum request to response latency (s)
system.mem_ctrls.priorityMaxLatency      0.140519784500                       # per QoS priority maximum request to response latency (s)
system.mem_ctrls.numReadWriteTurnArounds        73579                       # Number of turnarounds from READ to WRITE
system.mem_ctrls.numWriteReadTurnArounds        73579                       # Number of turnarounds from WRITE to READ
system.mem_ctrls.numStayReadState             5623320                       # Number of times bus staying in READ state
system.mem_ctrls.numStayWriteState            1110939                       # Number of times bus staying in WRITE state
system.mem_ctrls.readReqs                     2209264                       # Number of read requests accepted
system.mem_ctrls.writeReqs                    1184096                       # Number of write requests accepted
system.mem_ctrls.readBursts                   2209264                       # Number of DRAM read bursts, including those serviced by the write queue
system.mem_ctrls.writeBursts                  1184096                       # Number of DRAM write bursts, including those merged in the write queue
system.mem_ctrls.servicedByWrQ                    215                       # Number of DRAM read bursts serviced by the write queue
system.mem_ctrls.mergedWrBursts                     3                       # Number of DRAM write bursts merged with an existing one
system.mem_ctrls.neitherReadNorWriteReqs            0                       # Number of requests that are neither read nor write
system.mem_ctrls.perBankRdBursts::0            137907                       # Per bank write bursts
system.mem_ctrls.perBankRdBursts::1            138093                       # Per bank write bursts
system.mem_ctrls.perBankRdBursts::2            137954                       # Per bank write bursts
system.mem_ctrls.perBankRdBursts::3            137972                       # Per bank write bursts
system.mem_ctrls.perBankRdBursts::4            138115                       # Per bank write bursts
system.mem_ctrls.perBankRdBursts::5            138297                       # Per bank write bursts
system.mem_ctrls.perBankRdBursts::6            138182                       # Per bank write bursts
system.mem_ctrls.perBankRdBursts::7            138102                       # Per bank write bursts
system.mem_ctrls.perBankRdBursts::8            138477                       # Per bank write bursts
system.mem_ctrls.perBankRdBursts::9            138115                       # Per bank write bursts
system.mem_ctrls.perBankRdBursts::10           138216                       # Per bank write bursts
system.mem_ctrls.perBankRdBursts::11           138222                       # Per bank write bursts
system.mem_ctrls.perBankRdBursts::12           138069                       # Per bank write bursts
system.mem_ctrls.perBankRdBursts::13           137808                       # Per bank write bursts
system.mem_ctrls.perBankRdBursts::14           137854                       # Per bank write bursts
system.mem_ctrls.perBankRdBursts::15           137666                       # Per bank write bursts
system.mem_ctrls.perBankWrBursts::0             73918                       # Per bank write bursts
system.mem_ctrls.perBankWrBursts::1             74187                       # Per bank write bursts
system.mem_ctrls.perBankWrBursts::2             74223                       # Per bank write bursts
system.mem_ctrls.perBankWrBursts::3             74260                       # Per bank write bursts
system.mem_ctrls.perBankWrBursts::4             73782                       # Per bank write bursts
system.mem_ctrls.perBankWrBursts::5             73882                       # Per bank write bursts
system.mem_ctrls.perBankWrBursts::6             73847                       # Per bank write bursts
system.mem_ctrls.perBankWrBursts::7             73785                       # Per bank write bursts
system.mem_ctrls.perBankWrBursts::8             74149                       # Per bank write bursts
system.mem_ctrls.perBankWrBursts::9             73922                       # Per bank write bursts
system.mem_ctrls.perBankWrBursts::10            74067                       # Per bank write bursts
system.mem_ctrls.perBankWrBursts::11            74179                       # Per bank write bursts
system.mem_ctrls.perBankWrBursts::12            74112                       # Per bank write bursts
system.mem_ctrls.perBankWrBursts::13            74011                       # Per bank write bursts
system.mem_ctrls.perBankWrBursts::14            74002                       # Per bank write bursts
system.mem_ctrls.perBankWrBursts::15            73741                       # Per bank write bursts
system.mem_ctrls.avgRdQLen                       1.01                       # Average read queue length when enqueuing
system.mem_ctrls.avgWrQLen                      24.72                       # Average write queue length when enqueuing
system.mem_ctrls.totQLat                  15564662750                       # Total ticks spent queuing
system.mem_ctrls.totBusLat                11045245000                       # Total ticks spent in databus transfers
system.mem_ctrls.totMemAccLat             56984331500                       # Total ticks spent from burst creation until serviced by the DRAM
system.mem_ctrls.avgQLat                      7045.87                       # Average queueing delay per DRAM burst
system.mem_ctrls.avgBusLat                    5000.00                       # Average bus latency per DRAM burst
system.mem_ctrls.avgMemAccLat                25795.87                       # Average memory access latency per DRAM burst
system.mem_ctrls.numRdRetry                         0                       # Number of times read queue was full causing retry
system.mem_ctrls.numWrRetry                         0                       # Number of times write queue was full causing retry
system.mem_ctrls.readRowHits                  1940140                       # Number of row buffer hits during reads
system.mem_ctrls.writeRowHits                 1054572                       # Number of row buffer hits during writes
system.mem_ctrls.readRowHitRate                 87.83                       # Row buffer hit rate for reads
system.mem_ctrls.writeRowHitRate                89.06                       # Row buffer hit rate for writes
system.mem_ctrls.readPktSize::0                     0                       # Read request sizes (log2)
system.mem_ctrls.readPktSize::1                     0                       # Read request sizes (log2)
system.mem_ctrls.readPktSize::2                     0                       # Read request sizes (log2)
system.mem_ctrls.readPktSize::3                     0                       # Read request sizes (log2)
system.mem_ctrls.readPktSize::4                     0                       # Read request sizes (log2)
system.mem_ctrls.readPktSize::5                     0                       # Read request sizes (log2)
system.mem_ctrls.readPktSize::6               2209264                       # Read request sizes (log2)
system.mem_ctrls.writePktSize::0                    0                       # Write request sizes (log2)
system.mem_ctrls.writePktSize::1                    0                       # Write request sizes (log2)
system.mem_ctrls.writePktSize::2                    0                       # Write request sizes (log2)
system.mem_ctrls.writePktSize::3                    0                       # Write request sizes (log2)
system.mem_ctrls.writePktSize::4                    0                       # Write request sizes (log2)
system.mem_ctrls.writePktSize::5                    0                       # Write request sizes (log2)
system.mem_ctrls.writePktSize::6              1184096                       # Write request sizes (log2)
system.mem_ctrls.rdQLenPdf::0                 2173905                       # What read queue length does an incoming req see
system.mem_ctrls.rdQLenPdf::1                   30918                       # What read queue length does an incoming req see
system.mem_ctrls.rdQLenPdf::2                    2362                       # What read queue length does an incoming req see
system.mem_ctrls.rdQLenPdf::3                    1864                       # What read queue length does an incoming req see
system.mem_ctrls.rdQLenPdf::4                       0                       # What read queue length does an incoming req see
system.mem_ctrls.rdQLenPdf::5                       0                       # What read queue length does an incoming req see
system.mem_ctrls.rdQLenPdf::6                       0                       # What read queue length does an incoming req see
system.mem_ctrls.rdQLenPdf::7                       0                       # What read queue length does an incoming req see
system.mem_ctrls.rdQLenPdf::8                       0                       # What read queue length does an incoming req see
system.mem_ctrls.rdQLenPdf::9                       0                       # What read queue length does an incoming req see
system.mem_ctrls.rdQLenPdf::10                      0                       # What read queue length does an incoming req see
system.mem_ctrls.rdQLenPdf::11                      0                       # What read queue length does an incoming req see
system.mem_ctrls.rdQLenPdf::12                      0                       # What read queue length does an incoming req see
system.mem_ctrls.rdQLenPdf::13                      0                       # What read queue length does an incoming req see
system.mem_ctrls.rdQLenPdf::14                      0                       # What read queue length does an incoming req see
system.mem_ctrls.rdQLenPdf::15                      0                       # What read queue length does an incoming req see
system.mem_ctrls.rdQLenPdf::16                      0                       # What read queue length does an incoming req see
system.mem_ctrls.rdQLenPdf::17                      0                       # What read queue length does an incoming req see
system.mem_ctrls.rdQLenPdf::18                      0                       # What read queue length does an incoming req see
system.mem_ctrls.rdQLenPdf::19                      0                       # What read queue length does an incoming req see
system.mem_ctrls.rdQLenPdf::20                      0                       # What read queue length does an incoming req see
system.mem_ctrls.rdQLenPdf::21                      0                       # What read queue length does an incoming req see
system.mem_ctrls.rdQLenPdf::22                      0                       # What read queue length does an incoming req see
system.mem_ctrls.rdQLenPdf::23                      0                       # What read queue length does an incoming req see
system.mem_ctrls.rdQLenPdf::24                      0                       # What read queue length does an incoming req see
system.mem_ctrls.rdQLenPdf::25                      0                       # What read queue length does an incoming req see
system.mem_ctrls.rdQLenPdf::26                      0                       # What read queue length does an incoming req see
system.mem_ctrls.rdQLenPdf::27                      0                       # What read queue length does an incoming req see
system.mem_ctrls.rdQLenPdf::28                      0                       # What read queue length does an incoming req see
system.mem_ctrls.rdQLenPdf::29                      0                       # What read queue length does an incoming req see
system.mem_ctrls.rdQLenPdf::30                      0                       # What read queue length does an incoming req see
system.mem_ctrls.rdQLenPdf::31                      0                       # What read queue length does an incoming req see
system.mem_ctrls.wrQLenPdf::0                       1                       # What write queue length does an incoming req see
system.mem_ctrls.wrQLenPdf::1                       1                       # What write queue length does an incoming req see
system.mem_ctrls.wrQLenPdf::2                       1                       # What write queue length does an incoming req see
system.mem_ctrls.wrQLenPdf::3                       1                       # What write queue length does an incoming req see
system.mem_ctrls.wrQLenPdf::4                       1                       # What write queue length does an incoming req see
system.mem_ctrls.wrQLenPdf::5                       1                       # What write queue length does an incoming req see
system.mem_ctrls.wrQLenPdf::6                       1                       # What write queue length does an incoming req see
system.mem_ctrls.wrQLenPdf::7                       1                       # What write queue length does an incoming req see
system.mem_ctrls.wrQLenPdf::8                       1                       # What write queue length does an incoming req see
system.mem_ctrls.wrQLenPdf::9                       1                       # What write queue length does an incoming req see
system.mem_ctrls.wrQLenPdf::10                      1                       # What write queue length does an incoming req see
system.mem_ctrls.wrQLenPdf::11                      1                       # What write queue length does an incoming req see
system.mem_ctrls.wrQLenPdf::12                      1                       # What write queue length does an incoming req see
system.mem_ctrls.wrQLenPdf::13                      1                       # What write queue length does an incoming req see
system.mem_ctrls.wrQLenPdf::14                      1                       # What write queue length does an incoming req see
system.mem_ctrls.wrQLenPdf::15                   3348                       # What write queue length does an incoming req see
system.mem_ctrls.wrQLenPdf::16                   3388                       # What write queue length does an incoming req see
system.mem_ctrls.wrQLenPdf::17                  72685                       # What write queue length does an incoming req see
system.mem_ctrls.wrQLenPdf::18                  73265                       # What write queue length does an incoming req see
system.mem_ctrls.wrQLenPdf::19                  73446                       # What write queue length does an incoming req see
system.mem_ctrls.wrQLenPdf::20                  73584                       # What write queue length does an incoming req see
system.mem_ctrls.wrQLenPdf::21                  73596                       # What write queue length does an incoming req see
system.mem_ctrls.wrQLenPdf::22                  73856                       # What write queue length does an incoming req see
system.mem_ctrls.wrQLenPdf::23                  73653                       # What write queue length does an incoming req see
system.mem_ctrls.wrQLenPdf::24                  73773                       # What write queue length does an incoming req see
system.mem_ctrls.wrQLenPdf::25                  73617                       # What write queue length does an incoming req see
system.mem_ctrls.wrQLenPdf::26                  73601                       # What write queue length does an incoming req see
system.mem_ctrls.wrQLenPdf::27                  73589                       # What write queue length does an incoming req see
system.mem_ctrls.wrQLenPdf::28                  73583                       # What write queue length does an incoming req see
system.mem_ctrls.wrQLenPdf::29                  74059                       # What write queue length does an incoming req see
system.mem_ctrls.wrQLenPdf::30                  73588                       # What write queue length does an incoming req see
system.mem_ctrls.wrQLenPdf::31                  73859                       # What write queue length does an incoming req see
system.mem_ctrls.wrQLenPdf::32                  73581                       # What write queue length does an incoming req see
system.mem_ctrls.wrQLenPdf::33                      7                       # What write queue length does an incoming req see
system.mem_ctrls.wrQLenPdf::34                      0                       # What write queue length does an incoming req see
system.mem_ctrls.wrQLenPdf::35                      0                       # What write queue length does an incoming req see
system.mem_ctrls.wrQLenPdf::36                      0                       # What write queue length does an incoming req see
system.mem_ctrls.wrQLenPdf::37                      0                       # What write queue length does an incoming req see
system.mem_ctrls.wrQLenPdf::38                      0                       # What write queue length does an incoming req see
system.mem_ctrls.wrQLenPdf::39                      0                       # What write queue length does an incoming req see
system.mem_ctrls.wrQLenPdf::40                      0                       # What write queue length does an incoming req see
system.mem_ctrls.wrQLenPdf::41                      0                       # What write queue length does an incoming req see
system.mem_ctrls.wrQLenPdf::42                      0                       # What write queue length does an incoming req see
system.mem_ctrls.wrQLenPdf::43                      0                       # What write queue length does an incoming req see
system.mem_ctrls.wrQLenPdf::44                      0                       # What write queue length does an incoming req see
system.mem_ctrls.wrQLenPdf::45                      0                       # What write queue length does an incoming req see
system.mem_ctrls.wrQLenPdf::46                      0                       # What write queue length does an incoming req see
system.mem_ctrls.wrQLenPdf::47                      0                       # What write queue length does an incoming req see
system.mem_ctrls.wrQLenPdf::48                      0                       # What write queue length does an incoming req see
system.mem_ctrls.wrQLenPdf::49                      0                       # What write queue length does an incoming req see
system.mem_ctrls.wrQLenPdf::50                      0                       # What write queue length does an incoming req see
system.mem_ctrls.wrQLenPdf::51                      0                       # What write queue length does an incoming req see
system.mem_ctrls.wrQLenPdf::52                      0                       # What write queue length does an incoming req see
system.mem_ctrls.wrQLenPdf::53                      0                       # What write queue length does an incoming req see
system.mem_ctrls.wrQLenPdf::54                      0                       # What write queue length does an incoming req see
system.mem_ctrls.wrQLenPdf::55                      0                       # What write queue length does an incoming req see
system.mem_ctrls.wrQLenPdf::56                      0                       # What write queue length does an incoming req see
system.mem_ctrls.wrQLenPdf::57                      0                       # What write queue length does an incoming req see
system.mem_ctrls.wrQLenPdf::58                      0                       # What write queue length does an incoming req see
system.mem_ctrls.wrQLenPdf::59                      0                       # What write queue length does an incoming req see
system.mem_ctrls.wrQLenPdf::60                      0                       # What write queue length does an incoming req see
system.mem_ctrls.wrQLenPdf::61                      0                       # What write queue length does an incoming req see
system.mem_ctrls.wrQLenPdf::62                      0                       # What write queue length does an incoming req see
system.mem_ctrls.wrQLenPdf::63                      0                       # What write queue length does an incoming req see
system.mem_ctrls.bytesPerActivate::samples       398396                       # Bytes accessed per row activation
system.mem_ctrls.bytesPerActivate::mean    545.082902                       # Bytes accessed per row activation
system.mem_ctrls.bytesPerActivate::gmean   342.341839                       # Bytes accessed per row activation
system.mem_ctrls.bytesPerActivate::stdev   397.184572                       # Bytes accessed per row activation
system.mem_ctrls.bytesPerActivate::0-127       102197     25.65%     25.65% # Bytes accessed per row activation
system.mem_ctrls.bytesPerActivate::128-255        27338      6.86%     32.51% # Bytes accessed per row activation
system.mem_ctrls.bytesPerActivate::256-383        29632      7.44%     39.95% # Bytes accessed per row activation
system.mem_ctrls.bytesPerActivate::384-511        17454      4.38%     44.33% # Bytes accessed per row activation
system.mem_ctrls.bytesPerActivate::512-639        58409     14.66%     58.99% # Bytes accessed per row activation
system.mem_ctrls.bytesPerActivate::640-767        10178      2.55%     61.55% # Bytes accessed per row activation
system.mem_ctrls.bytesPerActivate::768-895        11102      2.79%     64.34% # Bytes accessed per row activation
system.mem_ctrls.bytesPerActivate::896-1023         9781      2.46%     66.79% # Bytes accessed per row activation
system.mem_ctrls.bytesPerActivate::1024-1151       132305     33.21%    100.00% # Bytes accessed per row activation
system.mem_ctrls.bytesPerActivate::total       398396                       # Bytes accessed per row activation
system.mem_ctrls.rdPerTurnAround::samples        73579                       # Reads before turning the bus around for writes
system.mem_ctrls.rdPerTurnAround::mean      30.022670                       # Reads before turning the bus around for writes
system.mem_ctrls.rdPerTurnAround::gmean     28.096297                       # Reads before turning the bus around for writes
system.mem_ctrls.rdPerTurnAround::stdev     51.899927                       # Reads before turning the bus around for writes
system.mem_ctrls.rdPerTurnAround::0-511         73554     99.97%     99.97% # Reads before turning the bus around for writes
system.mem_ctrls.rdPerTurnAround::512-1023           10      0.01%     99.98% # Reads before turning the bus around for writes
system.mem_ctrls.rdPerTurnAround::1024-1535            8      0.01%     99.99% # Reads before turning the bus around for writes
system.mem_ctrls.rdPerTurnAround::2048-2559            6      0.01%    100.00% # Reads before turning the bus around for writes
system.mem_ctrls.rdPerTurnAround::11776-12287            1      0.00%    100.00% # Reads before turning the bus around for writes
system.mem_ctrls.rdPerTurnAround::total         73579                       # Reads before turning the bus around for writes
system.mem_ctrls.wrPerTurnAround::samples        73579                       # Writes before turning the bus around for reads
system.mem_ctrls.wrPerTurnAround::mean      16.092458                       # Writes before turning the bus around for reads
system.mem_ctrls.wrPerTurnAround::gmean     16.087318                       # Writes before turning the bus around for reads
system.mem_ctrls.wrPerTurnAround::stdev      0.421886                       # Writes before turning the bus around for reads
system.mem_ctrls.wrPerTurnAround::16            70180     95.38%     95.38% # Writes before turning the bus around for reads
system.mem_ctrls.wrPerTurnAround::17               42      0.06%     95.44% # Writes before turning the bus around for reads
system.mem_ctrls.wrPerTurnAround::18             3317      4.51%     99.95% # Writes before turning the bus around for reads
system.mem_ctrls.wrPerTurnAround::19               36      0.05%     99.99% # Writes before turning the bus around for reads
system.mem_ctrls.wrPerTurnAround::20                1      0.00%    100.00% # Writes before turning the bus around for reads
system.mem_ctrls.wrPerTurnAround::21                3      0.00%    100.00% # Writes before turning the bus around for reads
system.mem_ctrls.wrPerTurnAround::total         73579                       # Writes before turning the bus around for reads
system.mem_ctrls.bytesReadDRAM              141379136                       # Total number of bytes read from DRAM
system.mem_ctrls.bytesReadWrQ                   13760                       # Total number of bytes read from write queue
system.mem_ctrls.bytesWritten                75780288                       # Total number of bytes written to DRAM
system.mem_ctrls.bytesReadSys               141392896                       # Total read bytes from the system interface side
system.mem_ctrls.bytesWrittenSys             75782144                       # Total written bytes from the system interface side
system.mem_ctrls.avgRdBW                       370.84                       # Average DRAM read bandwidth in MiByte/s
system.mem_ctrls.avgWrBW                       198.77                       # Average achieved write bandwidth in MiByte/s
system.mem_ctrls.avgRdBWSys                    370.87                       # Average system read bandwidth in MiByte/s
system.mem_ctrls.avgWrBWSys                    198.78                       # Average system write bandwidth in MiByte/s
system.mem_ctrls.peakBW                      12800.00                       # Theoretical peak bandwidth in MiByte/s
system.mem_ctrls.busUtil                         4.45                       # Data bus utilization in percentage
system.mem_ctrls.busUtilRead                     2.90                       # Data bus utilization in percentage for reads
system.mem_ctrls.busUtilWrite                    1.55                       # Data bus utilization in percentage for writes
system.mem_ctrls.totGap                  381243624500                       # Total gap between requests
system.mem_ctrls.avgGap                     112349.89                       # Average gap between requests
system.mem_ctrls.masterReadBytes::.cpu.inst        33280                       # Per-master bytes read from memory
system.mem_ctrls.masterReadBytes::.cpu.data    141345856                       # Per-master bytes read from memory
system.mem_ctrls.masterWriteBytes::.writebacks     75780288                       # Per-master bytes write to memory
system.mem_ctrls.masterReadRate::.cpu.inst 87293.210387998537                       # Per-master bytes read from memory rate (Bytes/sec)
system.mem_ctrls.masterReadRate::.cpu.data 370749205.086530804634                       # Per-master bytes read from memory rate (Bytes/sec)
system.mem_ctrls.masterWriteRate::.writebacks 198771172.585550487041                       # Per-master bytes write to memory rate (Bytes/sec)
system.mem_ctrls.masterReadAccesses::.cpu.inst          520                       # Per-master read serviced memory accesses
system.mem_ctrls.masterReadAccesses::.cpu.data      2208744                       # Per-master read serviced memory accesses
system.mem_ctrls.masterWriteAccesses::.writebacks      1184096                       # Per-master write serviced memory accesses
system.mem_ctrls.masterReadTotalLat::.cpu.inst     13403000                       # Per-master read total memory access latency
system.mem_ctrls.masterReadTotalLat::.cpu.data  56970928500                       # Per-master read total memory access latency
system.mem_ctrls.masterWriteTotalLat::.writebacks 9146220346250                       # Per-master write total memory access latency
system.mem_ctrls.masterReadAvgLat::.cpu.inst     25775.00                       # Per-master read average memory access latency
system.mem_ctrls.masterReadAvgLat::.cpu.data     25793.36                       # Per-master read average memory access latency
system.mem_ctrls.masterWriteAvgLat::.writebacks   7724221.98                       # Per-master write average memory access latency
system.mem_ctrls.pageHitRate                    88.26                       # Row buffer hit rate, read and write combined
system.mem_ctrls.rank1.actEnergy           1431862740                       # Energy for activate commands per rank (pJ)
system.mem_ctrls.rank1.preEnergy            761034120                       # Energy for precharge commands per rank (pJ)
system.mem_ctrls.rank1.readEnergy          7885608780                       # Energy for read commands per rank (pJ)
system.mem_ctrls.rank1.writeEnergy         3091195260                       # Energy for write commands per rank (pJ)
system.mem_ctrls.rank1.refreshEnergy     30094618320.000004                       # Energy for refresh commands per rank (pJ)
system.mem_ctrls.rank1.actBackEnergy     110402151450                       # Energy for active background per rank (pJ)
system.mem_ctrls.rank1.preBackEnergy      53427407520                       # Energy for precharge background per rank (pJ)
system.mem_ctrls.rank1.actPowerDownEnergy            0                       # Energy for active power-down per rank (pJ)
system.mem_ctrls.rank1.prePowerDownEnergy            0                       # Energy for precharge power-down per rank (pJ)
system.mem_ctrls.rank1.selfRefreshEnergy            0                       # Energy for self refresh per rank (pJ)
system.mem_ctrls.rank1.totalEnergy       207093878190                       # Total energy per rank (pJ)
system.mem_ctrls.rank1.averagePower        543.205814                       # Core power per rank (mW)
system.mem_ctrls.rank1.totalIdleTime                0                       # Total Idle time Per DRAM Rank
system.mem_ctrls.rank1.memoryStateTime::IDLE 137428218750                       # Time in different power states
system.mem_ctrls.rank1.memoryStateTime::REF  12730380000                       # Time in different power states
system.mem_ctrls.rank1.memoryStateTime::SREF            0                       # Time in different power states
system.mem_ctrls.rank1.memoryStateTime::PRE_PDN            0                       # Time in different power states
system.mem_ctrls.rank1.memoryStateTime::ACT 231085255750                       # Time in different power states
system.mem_ctrls.rank1.memoryStateTime::ACT_PDN            0                       # Time in different power states
system.mem_ctrls.rank0.actEnergy           1412741820                       # Energy for activate commands per rank (pJ)
system.mem_ctrls.rank0.preEnergy            750878700                       # Energy for precharge commands per rank (pJ)
system.mem_ctrls.rank0.readEnergy          7887001080                       # Energy for read commands per rank (pJ)
system.mem_ctrls.rank0.writeEnergy         3089634480                       # Energy for write commands per rank (pJ)
system.mem_ctrls.rank0.refreshEnergy     30094618320.000004                       # Energy for refresh commands per rank (pJ)
system.mem_ctrls.rank0.actBackEnergy     111199145400                       # Energy for active background per rank (pJ)
system.mem_ctrls.rank0.preBackEnergy      52756254720                       # Energy for precharge background per rank (pJ)
system.mem_ctrls.rank0.actPowerDownEnergy            0                       # Energy for active power-down per rank (pJ)
system.mem_ctrls.rank0.prePowerDownEnergy            0                       # Energy for precharge power-down per rank (pJ)
system.mem_ctrls.rank0.selfRefreshEnergy            0                       # Energy for self refresh per rank (pJ)
system.mem_ctrls.rank0.totalEnergy       207190274520                       # Total energy per rank (pJ)
system.mem_ctrls.rank0.averagePower        543.458661                       # Core power per rank (mW)
system.mem_ctrls.rank0.totalIdleTime                0                       # Total Idle time Per DRAM Rank
system.mem_ctrls.rank0.memoryStateTime::IDLE 135673287000                       # Time in different power states
system.mem_ctrls.rank0.memoryStateTime::REF  12730380000                       # Time in different power states
system.mem_ctrls.rank0.memoryStateTime::SREF            0                       # Time in different power states
system.mem_ctrls.rank0.memoryStateTime::PRE_PDN            0                       # Time in different power states
system.mem_ctrls.rank0.memoryStateTime::ACT 232840187500                       # Time in different power states
system.mem_ctrls.rank0.memoryStateTime::ACT_PDN            0                       # Time in different power states
system.mem_ctrls.power_state.pwrStateResidencyTicks::UNDEFINED 381243854500                       # Cumulative time (in ticks) in various power states
system.cpu_clk_domain.clock                       500                       # Clock period in ticks
system.cpu.icache.demand_hits::.cpu.inst    146029999                       # number of demand (read+write) hits
system.cpu.icache.demand_hits::total        146029999                       # number of demand (read+write) hits
system.cpu.icache.overall_hits::.cpu.inst    146029999                       # number of overall hits
system.cpu.icache.overall_hits::total       146029999                       # number of overall hits
system.cpu.icache.demand_misses::.cpu.inst          521                       # number of demand (read+write) misses
system.cpu.icache.demand_misses::total            521                       # number of demand (read+write) misses
system.cpu.icache.overall_misses::.cpu.inst          521                       # number of overall misses
system.cpu.icache.overall_misses::total           521                       # number of overall misses
system.cpu.icache.demand_miss_latency::.cpu.inst     41145500                       # number of demand (read+write) miss cycles
system.cpu.icache.demand_miss_latency::total     41145500                       # number of demand (read+write) miss cycles
system.cpu.icache.overall_miss_latency::.cpu.inst     41145500                       # number of overall miss cycles
system.cpu.icache.overall_miss_latency::total     41145500                       # number of overall miss cycles
system.cpu.icache.demand_accesses::.cpu.inst    146030520                       # number of demand (read+write) accesses
system.cpu.icache.demand_accesses::total    146030520                       # number of demand (read+write) accesses
system.cpu.icache.overall_accesses::.cpu.inst    146030520                       # number of overall (read+write) accesses
system.cpu.icache.overall_accesses::total    146030520                       # number of overall (read+write) accesses
system.cpu.icache.demand_miss_rate::.cpu.inst     0.000004                       # miss rate for demand accesses
system.cpu.icache.demand_miss_rate::total     0.000004                       # miss rate for demand accesses
system.cpu.icache.overall_miss_rate::.cpu.inst     0.000004                       # miss rate for overall accesses
system.cpu.icache.overall_miss_rate::total     0.000004                       # miss rate for overall accesses
system.cpu.icache.demand_avg_miss_latency::.cpu.inst 78974.088292                       # average overall miss latency
system.cpu.icache.demand_avg_miss_latency::total 78974.088292                       # average overall miss latency
system.cpu.icache.overall_avg_miss_latency::.cpu.inst 78974.088292                       # average overall miss latency
system.cpu.icache.overall_avg_miss_latency::total 78974.088292                       # average overall miss latency
system.cpu.icache.blocked_cycles::no_mshrs            0                       # number of cycles access was blocked
system.cpu.icache.blocked_cycles::no_targets            0                       # number of cycles access was blocked
system.cpu.icache.blocked::no_mshrs                 0                       # number of cycles access was blocked
system.cpu.icache.blocked::no_targets               0                       # number of cycles access was blocked
system.cpu.icache.avg_blocked_cycles::no_mshrs          nan                       # average number of cycles each access was blocked
system.cpu.icache.avg_blocked_cycles::no_targets          nan                       # average number of cycles each access was blocked
system.cpu.icache.writebacks::.writebacks            6                       # number of writebacks
system.cpu.icache.writebacks::total                 6                       # number of writebacks
system.cpu.icache.demand_mshr_misses::.cpu.inst          521                       # number of demand (read+write) MSHR misses
[...]
system.cpu.icache.tags.occ_task_id_blocks::1024          515                       # Occupied blocks per task id
system.cpu.icache.tags.age_task_id_blocks_1024::4          515                       # Occupied blocks per task id
system.cpu.icache.tags.occ_task_id_percent::1024     0.251465                       # Percentage of cache occupancy per task id
system.cpu.icache.tags.tag_accesses         292061561                       # Number of tag accesses
system.cpu.icache.tags.data_accesses        292061561                       # Number of data accesses
system.cpu.icache.tags.power_state.pwrStateResidencyTicks::UNDEFINED 381243854500                       # Cumulative time (in ticks) in various power states
system.cpu.dtb.walker.power_state.pwrStateResidencyTicks::UNDEFINED 381243854500                       # Cumulative time (in ticks) in various power states
system.cpu.interrupts.clk_domain.clock           8000                       # Clock period in ticks
system.cpu.itb_walker_cache.blocked_cycles::no_mshrs            0                       # number of cycles access was blocked
system.cpu.itb_walker_cache.blocked_cycles::no_targets            0                       # number of cycles access was blocked
system.cpu.itb_walker_cache.blocked::no_mshrs            0                       # number of cycles access was blocked
system.cpu.itb_walker_cache.blocked::no_targets            0                       # number of cycles access was blocked
system.cpu.itb_walker_cache.avg_blocked_cycles::no_mshrs          nan                       # average number of cycles each access was blocked
system.cpu.itb_walker_cache.avg_blocked_cycles::no_targets          nan                       # average number of cycles each access was blocked
system.cpu.itb_walker_cache.replacements            0                       # number of replacements
system.cpu.itb_walker_cache.power_state.pwrStateResidencyTicks::UNDEFINED 381243854500                       # Cumulative time (in ticks) in various power states
system.cpu.itb_walker_cache.tags.tagsinuse            0                       # Cycle average of tags in use
system.cpu.itb_walker_cache.tags.total_refs            0                       # Total number of references to valid blocks.
system.cpu.itb_walker_cache.tags.sampled_refs            0                       # Sample count of references to valid blocks.
system.cpu.itb_walker_cache.tags.avg_refs          nan                       # Average number of references to valid blocks.
system.cpu.itb_walker_cache.tags.warmup_cycle            0                       # Cycle when the warmup percentage was hit.
system.cpu.itb_walker_cache.tags.tag_accesses            0                       # Number of tag accesses
system.cpu.itb_walker_cache.tags.data_accesses            0                       # Number of data accesses
system.cpu.itb_walker_cache.tags.power_state.pwrStateResidencyTicks::UNDEFINED 381243854500                       # Cumulative time (in ticks) in various power states
system.cpu.itb.walker.power_state.pwrStateResidencyTicks::UNDEFINED 381243854500                       # Cumulative time (in ticks) in various power states
system.cpu.dtb_walker_cache.blocked_cycles::no_mshrs            0                       # number of cycles access was blocked
system.cpu.dtb_walker_cache.blocked_cycles::no_targets            0                       # number of cycles access was blocked
system.cpu.dtb_walker_cache.blocked::no_mshrs            0                       # number of cycles access was blocked
system.cpu.dtb_walker_cache.blocked::no_targets            0                       # number of cycles access was blocked
system.cpu.dtb_walker_cache.avg_blocked_cycles::no_mshrs          nan                       # average number of cycles each access was blocked
system.cpu.dtb_walker_cache.avg_blocked_cycles::no_targets          nan                       # average number of cycles each access was blocked
system.cpu.dtb_walker_cache.replacements            0                       # number of replacements
system.cpu.dtb_walker_cache.power_state.pwrStateResidencyTicks::UNDEFINED 381243854500                       # Cumulative time (in ticks) in various power states
system.cpu.dtb_walker_cache.tags.tagsinuse            0                       # Cycle average of tags in use
system.cpu.dtb_walker_cache.tags.total_refs            0                       # Total number of references to valid blocks.
system.cpu.dtb_walker_cache.tags.sampled_refs            0                       # Sample count of references to valid blocks.
system.cpu.dtb_walker_cache.tags.avg_refs          nan                       # Average number of references to valid blocks.
system.cpu.dtb_walker_cache.tags.warmup_cycle            0                       # Cycle when the warmup percentage was hit.
system.cpu.dtb_walker_cache.tags.tag_accesses            0                       # Number of tag accesses
system.cpu.dtb_walker_cache.tags.data_accesses            0                       # Number of data accesses
system.cpu.dtb_walker_cache.tags.power_state.pwrStateResidencyTicks::UNDEFINED 381243854500                       # Cumulative time (in ticks) in various power states
system.cpu.dcache.demand_hits::.cpu.data     62584313                       # number of demand (read+write) hits
system.cpu.dcache.demand_hits::total         62584313                       # number of demand (read+write) hits
system.cpu.dcache.overall_hits::.cpu.data     62584313                       # number of overall hits
system.cpu.dcache.overall_hits::total        62584313                       # number of overall hits
system.cpu.dcache.demand_misses::.cpu.data      2369022                       # number of demand (read+write) misses
system.cpu.dcache.demand_misses::total        2369022                       # number of demand (read+write) misses
system.cpu.dcache.overall_misses::.cpu.data      2434558                       # number of overall misses
system.cpu.dcache.overall_misses::total       2434558                       # number of overall misses
system.cpu.dcache.demand_miss_latency::.cpu.data 171945734500                       # number of demand (read+write) miss cycles
system.cpu.dcache.demand_miss_latency::total 171945734500                       # number of demand (read+write) miss cycles
system.cpu.dcache.overall_miss_latency::.cpu.data 171945734500                       # number of overall miss cycles
system.cpu.dcache.overall_miss_latency::total 171945734500                       # number of overall miss cycles
system.cpu.dcache.demand_accesses::.cpu.data     64953335                       # number of demand (read+write) accesses
system.cpu.dcache.demand_accesses::total     64953335                       # number of demand (read+write) accesses
system.cpu.dcache.overall_accesses::.cpu.data     65018871                       # number of overall (read+write) accesses
system.cpu.dcache.overall_accesses::total     65018871                       # number of overall (read+write) accesses
system.cpu.dcache.demand_miss_rate::.cpu.data     0.036473                       # miss rate for demand accesses
system.cpu.dcache.demand_miss_rate::total     0.036473                       # miss rate for demand accesses
system.cpu.dcache.overall_miss_rate::.cpu.data     0.037444                       # miss rate for overall accesses
system.cpu.dcache.overall_miss_rate::total     0.037444                       # miss rate for overall accesses
system.cpu.dcache.demand_avg_miss_latency::.cpu.data 72580.893930                       # average overall miss latency
system.cpu.dcache.demand_avg_miss_latency::total 72580.893930                       # average overall miss latency
system.cpu.dcache.overall_avg_miss_latency::.cpu.data 70627.084875                       # average overall miss latency
system.cpu.dcache.overall_avg_miss_latency::total 70627.084875                       # average overall miss latency
system.cpu.dcache.blocked_cycles::no_mshrs      1214666                       # number of cycles access was blocked
system.cpu.dcache.blocked_cycles::no_targets            0                       # number of cycles access was blocked
system.cpu.dcache.blocked::no_mshrs             20654                       # number of cycles access was blocked
system.cpu.dcache.blocked::no_targets               0                       # number of cycles access was blocked
system.cpu.dcache.avg_blocked_cycles::no_mshrs    58.810206                       # average number of cycles each access was blocked
system.cpu.dcache.avg_blocked_cycles::no_targets          nan                       # average number of cycles each access was blocked
system.cpu.dcache.writebacks::.writebacks      1422613                       # number of writebacks
system.cpu.dcache.writebacks::total           1422613                       # number of writebacks
system.cpu.dcache.demand_mshr_misses::.cpu.data      2369022                       # number of demand (read+write) MSHR misses
system.cpu.dcache.demand_mshr_misses::total      2369022                       # number of demand (read+write) MSHR misses
system.cpu.dcache.overall_mshr_misses::.cpu.data      2434558                       # number of overall MSHR misses
system.cpu.dcache.overall_mshr_misses::total      2434558                       # number of overall MSHR misses
system.cpu.dcache.demand_mshr_miss_latency::.cpu.data 169576712500                       # number of demand (read+write) MSHR miss cycles
system.cpu.dcache.demand_mshr_miss_latency::total 169576712500                       # number of demand (read+write) MSHR miss cycles
system.cpu.dcache.overall_mshr_miss_latency::.cpu.data 175190828921                       # number of overall MSHR miss cycles
system.cpu.dcache.overall_mshr_miss_latency::total 175190828921                       # number of overall MSHR miss cycles
system.cpu.dcache.demand_mshr_miss_rate::.cpu.data     0.036473                       # mshr miss rate for demand accesses
system.cpu.dcache.demand_mshr_miss_rate::total     0.036473                       # mshr miss rate for demand accesses
system.cpu.dcache.overall_mshr_miss_rate::.cpu.data     0.037444                       # mshr miss rate for overall accesses
system.cpu.dcache.overall_mshr_miss_rate::total     0.037444                       # mshr miss rate for overall accesses
system.cpu.dcache.demand_avg_mshr_miss_latency::.cpu.data 71580.893930                       # average overall mshr miss latency
system.cpu.dcache.demand_avg_mshr_miss_latency::total 71580.893930                       # average overall mshr miss latency
system.cpu.dcache.overall_avg_mshr_miss_latency::.cpu.data 71960.014475                       # average overall mshr miss latency
system.cpu.dcache.overall_avg_mshr_miss_latency::total 71960.014475                       # average overall mshr miss latency
system.cpu.dcache.replacements                2432510                       # number of replacements
system.cpu.dcache.ReadReq_hits::.cpu.data     46182623                       # number of ReadReq hits
system.cpu.dcache.ReadReq_hits::total        46182623                       # number of ReadReq hits
system.cpu.dcache.ReadReq_misses::.cpu.data      1126089                       # number of ReadReq misses
system.cpu.dcache.ReadReq_misses::total       1126089                       # number of ReadReq misses
system.cpu.dcache.ReadReq_miss_latency::.cpu.data  80634858000                       # number of ReadReq miss cycles
system.cpu.dcache.ReadReq_miss_latency::total  80634858000                       # number of ReadReq miss cycles
system.cpu.dcache.ReadReq_accesses::.cpu.data     47308712                       # number of ReadReq accesses(hits+misses)
system.cpu.dcache.ReadReq_accesses::total     47308712                       # number of ReadReq accesses(hits+misses)
system.cpu.dcache.ReadReq_miss_rate::.cpu.data     0.023803                       # miss rate for ReadReq accesses
system.cpu.dcache.ReadReq_miss_rate::total     0.023803                       # miss rate for ReadReq accesses
system.cpu.dcache.ReadReq_avg_miss_latency::.cpu.data 71606.114614                       # average ReadReq miss latency
system.cpu.dcache.ReadReq_avg_miss_latency::total 71606.114614                       # average ReadReq miss latency
system.cpu.dcache.ReadReq_mshr_misses::.cpu.data      1126089                       # number of ReadReq MSHR misses
system.cpu.dcache.ReadReq_mshr_misses::total      1126089                       # number of ReadReq MSHR misses
system.cpu.dcache.ReadReq_mshr_miss_latency::.cpu.data  79508769000                       # number of ReadReq MSHR miss cycles
system.cpu.dcache.ReadReq_mshr_miss_latency::total  79508769000                       # number of ReadReq MSHR miss cycles
system.cpu.dcache.ReadReq_mshr_miss_rate::.cpu.data     0.023803                       # mshr miss rate for ReadReq accesses
system.cpu.dcache.ReadReq_mshr_miss_rate::total     0.023803                       # mshr miss rate for ReadReq accesses
system.cpu.dcache.ReadReq_avg_mshr_miss_latency::.cpu.data 70606.114614                       # average ReadReq mshr miss latency
system.cpu.dcache.ReadReq_avg_mshr_miss_latency::total 70606.114614                       # average ReadReq mshr miss latency
system.cpu.dcache.WriteReq_hits::.cpu.data     16401690                       # number of WriteReq hits
system.cpu.dcache.WriteReq_hits::total       16401690                       # number of WriteReq hits
system.cpu.dcache.WriteReq_misses::.cpu.data      1242933                       # number of WriteReq misses
system.cpu.dcache.WriteReq_misses::total      1242933                       # number of WriteReq misses
system.cpu.dcache.WriteReq_miss_latency::.cpu.data  91310876500                       # number of WriteReq miss cycles
system.cpu.dcache.WriteReq_miss_latency::total  91310876500                       # number of WriteReq miss cycles
system.cpu.dcache.WriteReq_accesses::.cpu.data     17644623                       # number of WriteReq accesses(hits+misses)
system.cpu.dcache.WriteReq_accesses::total     17644623                       # number of WriteReq accesses(hits+misses)
system.cpu.dcache.WriteReq_miss_rate::.cpu.data     0.070443                       # miss rate for WriteReq accesses
system.cpu.dcache.WriteReq_miss_rate::total     0.070443                       # miss rate for WriteReq accesses
system.cpu.dcache.WriteReq_avg_miss_latency::.cpu.data 73464.037482                       # average WriteReq miss latency
system.cpu.dcache.WriteReq_avg_miss_latency::total 73464.037482                       # average WriteReq miss latency
system.cpu.dcache.WriteReq_mshr_misses::.cpu.data      1242933                       # number of WriteReq MSHR misses
system.cpu.dcache.WriteReq_mshr_misses::total      1242933                       # number of WriteReq MSHR misses
system.cpu.dcache.WriteReq_mshr_miss_latency::.cpu.data  90067943500                       # number of WriteReq MSHR miss cycles
system.cpu.dcache.WriteReq_mshr_miss_latency::total  90067943500                       # number of WriteReq MSHR miss cycles
system.cpu.dcache.WriteReq_mshr_miss_rate::.cpu.data     0.070443                       # mshr miss rate for WriteReq accesses
system.cpu.dcache.WriteReq_mshr_miss_rate::total     0.070443                       # mshr miss rate for WriteReq accesses
system.cpu.dcache.WriteReq_avg_mshr_miss_latency::.cpu.data 72464.037482                       # average WriteReq mshr miss latency
system.cpu.dcache.WriteReq_avg_mshr_miss_latency::total 72464.037482                       # average WriteReq mshr miss latency
system.cpu.dcache.SoftPFReq_misses::.cpu.data        65536                       # number of SoftPFReq misses
system.cpu.dcache.SoftPFReq_misses::total        65536                       # number of SoftPFReq misses
system.cpu.dcache.SoftPFReq_accesses::.cpu.data        65536                       # number of SoftPFReq accesses(hits+misses)
system.cpu.dcache.SoftPFReq_accesses::total        65536                       # number of SoftPFReq accesses(hits+misses)
system.cpu.dcache.SoftPFReq_miss_rate::.cpu.data            1                       # miss rate for SoftPFReq accesses
system.cpu.dcache.SoftPFReq_miss_rate::total            1                       # miss rate for SoftPFReq accesses
system.cpu.dcache.SoftPFReq_mshr_misses::.cpu.data        65536                       # number of SoftPFReq MSHR misses
system.cpu.dcache.SoftPFReq_mshr_misses::total        65536                       # number of SoftPFReq MSHR misses
system.cpu.dcache.SoftPFReq_mshr_miss_latency::.cpu.data   5614116421                       # number of SoftPFReq MSHR miss cycles
system.cpu.dcache.SoftPFReq_mshr_miss_latency::total   5614116421                       # number of SoftPFReq MSHR miss cycles
system.cpu.dcache.SoftPFReq_mshr_miss_rate::.cpu.data            1                       # mshr miss rate for SoftPFReq accesses
system.cpu.dcache.SoftPFReq_mshr_miss_rate::total            1                       # mshr miss rate for SoftPFReq accesses
system.cpu.dcache.SoftPFReq_avg_mshr_miss_latency::.cpu.data 85664.618240                       # average SoftPFReq mshr miss latency
system.cpu.dcache.SoftPFReq_avg_mshr_miss_latency::total 85664.618240                       # average SoftPFReq mshr miss latency
system.cpu.dcache.power_state.pwrStateResidencyTicks::UNDEFINED 381243854500                       # Cumulative time (in ticks) in various power states
system.cpu.dcache.tags.tagsinuse          1945.352225                       # Cycle average of tags in use
system.cpu.dcache.tags.total_refs            65018871                       # Total number of references to valid blocks.
system.cpu.dcache.tags.sampled_refs           2434558                       # Sample count of references to valid blocks.
system.cpu.dcache.tags.avg_refs             26.706643                       # Average number of references to valid blocks.
system.cpu.dcache.tags.warmup_cycle            189500                       # Cycle when the warmup percentage was hit.
system.cpu.dcache.tags.occ_blocks::.cpu.data  1945.352225                       # Average occupied blocks per requestor
system.cpu.dcache.tags.occ_percent::.cpu.data     0.949879                       # Average percentage of cache occupancy
system.cpu.dcache.tags.occ_percent::total     0.949879                       # Average percentage of cache occupancy
system.cpu.dcache.tags.occ_task_id_blocks::1024         2048                       # Occupied blocks per task id
system.cpu.dcache.tags.age_task_id_blocks_1024::0           55                       # Occupied blocks per task id
system.cpu.dcache.tags.age_task_id_blocks_1024::1          345                       # Occupied blocks per task id
system.cpu.dcache.tags.age_task_id_blocks_1024::2         1290                       # Occupied blocks per task id
system.cpu.dcache.tags.age_task_id_blocks_1024::3          357                       # Occupied blocks per task id
system.cpu.dcache.tags.age_task_id_blocks_1024::4            1                       # Occupied blocks per task id
system.cpu.dcache.tags.occ_task_id_percent::1024            1                       # Percentage of cache occupancy per task id
system.cpu.dcache.tags.tag_accesses         132472300                       # Number of tag accesses
system.cpu.dcache.tags.data_accesses        132472300                       # Number of data accesses
system.cpu.dcache.tags.power_state.pwrStateResidencyTicks::UNDEFINED 381243854500                       # Cumulative time (in ticks) in various power states
system.cpu.power_state.numTransitions               1                       # Number of power state transitions
system.cpu.power_state.pwrStateResidencyTicks::ON 381243854500                       # Cumulative time (in ticks) in various power states

---------- End Simulation Statistics   ----------
