
---------- Begin Simulation Statistics ----------
final_tick                               380164710500                       # Number of ticks from beginning of simulation (restored from checkpoints and never reset)
host_inst_rate                                 336749                       # Simulator instruction rate (inst/s)
host_mem_usage                                 827140                       # Number of bytes of host memory used
host_op_rate                                   423610                       # Simulator op (including micro ops) rate (op/s)
host_seconds                                   296.96                       # Real time elapsed on the host
host_tick_rate                             1280201249                       # Simulator tick rate (ticks/s)
sim_freq                                 1000000000000                       # Frequency of simulated ticks
sim_insts                                   100000001                       # Number of instructions simulated
sim_ops                                     125793993                       # Number of ops (including micro ops) simulated
sim_seconds                                  0.380165                       # Number of seconds simulated
sim_ticks                                380164710500                       # Number of ticks simulated
system.cpu.Branches                           5058678                       # Number of branches fetched
system.cpu.committedInsts                   100000001                       # Number of instructions committed
system.cpu.committedOps                     125793993                       # Number of ops (including micro ops) committed
system.cpu.dtb.rdAccesses                    47374248                       # TLB accesses on read requests
system.cpu.dtb.rdMisses                        154484                       # TLB misses on read requests
system.cpu.dtb.wrAccesses                    17694721                       # TLB accesses on write requests
system.cpu.dtb.wrMisses                        442815                       # TLB misses on write requests
system.cpu.idle_fraction                            0                       # Percentage of idle cycles
system.cpu.itb.rdAccesses                           0                       # TLB accesses on read requests
system.cpu.itb.rdMisses                             0                       # TLB misses on read requests
system.cpu.itb.wrAccesses                   146030520                       # TLB accesses on write requests
system.cpu.itb.wrMisses                            47                       # TLB misses on write requests
system.cpu.not_idle_fraction                        1                       # Percentage of non-idle cycles
system.cpu.numCycles                        760329421                       # number of cpu cycles simulated
system.cpu.numWorkItemsCompleted                    0                       # number of work items this cpu completed
system.cpu.numWorkItemsStarted                      0                       # number of work items this cpu started
system.cpu.num_busy_cycles                  760329421                       # Number of busy cycles
system.cpu.num_cc_register_reads             26575754                       # number of times the CC registers were read
system.cpu.num_cc_register_writes            36968347                       # number of times the CC registers were written
system.cpu.num_conditional_control_insts      3953386                       # number of instructions that are conditional controls
system.cpu.num_fp_alu_accesses                    835                       # Number of float alu accesses
system.cpu.num_fp_insts                           835                       # number of float instructions
system.cpu.num_fp_register_reads                 1311                       # number of times the floating registers were read
system.cpu.num_fp_register_writes                 577                       # number of times the floating registers were written
system.cpu.num_func_calls                       69318                       # number of times a function call or return occured
system.cpu.num_idle_cycles                          0                       # Number of idle cycles
system.cpu.num_int_alu_accesses             124882992                       # Number of integer alu accesses
system.cpu.num_int_insts                    124882992                       # number of integer instructions
system.cpu.num_int_register_reads           314740254                       # number of times the integer registers were read
system.cpu.num_int_register_writes          102332038                       # number of times the integer registers were written
system.cpu.num_load_insts                    47374238                       # Number of load instructions
system.cpu.num_mem_refs                      65068958                       # number of memory refs
system.cpu.num_store_insts                   17694720                       # Number of store instructions
system.cpu.num_vec_alu_accesses                     0                       # Number of vector alu accesses
system.cpu.num_vec_insts                            0                       # number of vector instructions
system.cpu.num_vec_register_reads                   0                       # number of times the vector registers were read
system.cpu.num_vec_register_writes                  0                       # number of times the vector registers were written
system.cpu.op_class::No_OpClass               8069700      6.07%      6.07% # Class of executed instruction
system.cpu.op_class::IntAlu                  59683295     44.89%     50.96% # Class of executed instruction
system.cpu.op_class::IntMult                   130946      0.10%     51.06% # Class of executed instruction
system.cpu.op_class::IntDiv                        70      0.00%     51.06% # Class of executed instruction
system.cpu.op_class::FloatAdd                      21      0.00%     51.06% # Class of executed instruction
system.cpu.op_class::FloatCmp                       0      0.00%     51.06% # Class of executed instruction
system.cpu.op_class::FloatCvt                       0      0.00%     51.06% # Class of executed instruction
system.cpu.op_class::FloatMult                      0      0.00%     51.06% # Class of executed instruction
system.cpu.op_class::FloatMultAcc                   0      0.00%     51.06% # Class of executed instruction
system.cpu.op_class::FloatDiv                       0      0.00%     51.06% # Class of executed instruction
system.cpu.op_class::FloatMisc                      0      0.00%     51.06% # Class of executed instruction
system.cpu.op_class::FloatSqrt                      0      0.00%     51.06% # Class of executed instruction
system.cpu.op_class::SimdAdd                        0      0.00%     51.06% # Class of executed instruction
system.cpu.op_class::SimdAddAcc                     0      0.00%     51.06% # Class of executed instruction
system.cpu.op_class::SimdAlu                      142      0.00%     51.06% # Class of executed instruction
system.cpu.op_class::SimdCmp                        0      0.00%     51.06% # Class of executed instruction
system.cpu.op_class::SimdCvt                      126      0.00%     51.06% # Class of executed instruction
system.cpu.op_class::SimdMisc                     241      0.00%     51.06% # Class of executed instruction
system.cpu.op_class::SimdMult                       0      0.00%     51.06% # Class of executed instruction
system.cpu.op_class::SimdMultAcc                    0      0.00%     51.06% # Class of executed instruction
system.cpu.op_class::SimdShift                      0      0.00%     51.06% # Class of executed instruction
system.cpu.op_class::SimdShiftAcc                   0      0.00%     51.06% # Class of executed instruction
system.cpu.op_class::SimdDiv                        0      0.00%     51.06% # Class of executed instruction
system.cpu.op_class::SimdSqrt                       0      0.00%     51.06% # Class of executed instruction
system.cpu.op_class::SimdFloatAdd                   0      0.00%     51.06% # Class of executed instruction
system.cpu.op_class::SimdFloatAlu                   0      0.00%     51.06% # Class of executed instruction
system.cpu.op_class::SimdFloatCmp                   0      0.00%     51.06% # Class of executed instruction
system.cpu.op_class::SimdFloatCvt                   0      0.00%     51.06% # Class of executed instruction
system.cpu.op_class::SimdFloatDiv                   0      0.00%     51.06% # Class of executed instruction
system.cpu.op_class::SimdFloatMisc                  0      0.00%     51.06% # Class of executed instruction
system.cpu.op_class::SimdFloatMult                  0      0.00%     51.06% # Class of executed instruction
system.cpu.op_class::SimdFloatMultAcc               0      0.00%     51.06% # Class of executed instruction
system.cpu.op_class::SimdFloatSqrt                  0      0.00%     51.06% # Class of executed instruction
system.cpu.op_class::SimdReduceAdd                  0      0.00%     51.06% # Class of executed instruction
system.cpu.op_class::SimdReduceAlu                  0      0.00%     51.06% # Class of executed instruction
system.cpu.op_class::SimdReduceCmp                  0      0.00%     51.06% # Class of executed instruction
system.cpu.op_class::SimdFloatReduceAdd             0      0.00%     51.06% # Class of executed instruction
system.cpu.op_class::SimdFloatReduceCmp             0      0.00%     51.06% # Class of executed instruction
system.cpu.op_class::SimdAes                        0      0.00%     51.06% # Class of executed instruction
system.cpu.op_class::SimdAesMix                     0      0.00%     51.06% # Class of executed instruction
system.cpu.op_class::SimdSha1Hash                   0      0.00%     51.06% # Class of executed instruction
system.cpu.op_class::SimdSha1Hash2                  0      0.00%     51.06% # Class of executed instruction
system.cpu.op_class::SimdSha256Hash                 0      0.00%     51.06% # Class of executed instruction
system.cpu.op_class::SimdSha256Hash2                0      0.00%     51.06% # Class of executed instruction
system.cpu.op_class::SimdShaSigma2                  0      0.00%     51.06% # Class of executed instruction
system.cpu.op_class::SimdShaSigma3                  0      0.00%     51.06% # Class of executed instruction
system.cpu.op_class::SimdPredAlu                    0      0.00%     51.06% # Class of executed instruction
system.cpu.op_class::MemRead                 47374156     35.63%     86.69% # Class of executed instruction
system.cpu.op_class::MemWrite                17694556     13.31%    100.00% # Class of executed instruction
system.cpu.op_class::FloatMemRead                  82      0.00%    100.00% # Class of executed instruction
system.cpu.op_class::FloatMemWrite                164      0.00%    100.00% # Class of executed instruction
system.cpu.op_class::IprAccess                      0      0.00%    100.00% # Class of executed instruction
system.cpu.op_class::InstPrefetch                   0      0.00%    100.00% # Class of executed instruction
system.cpu.op_class::total                  132953499                       # Class of executed instruction
system.cpu.workload.numSyscalls                    89                       # Number of system calls
system.membus.snoop_filter.hit_multi_requests            0                       # Number of requests hitting in the snoop filter with multiple (>1) holders of the requested data.
system.membus.snoop_filter.hit_multi_snoops            0                       # Number of snoops hitting in the snoop filter with multiple (>1) holders of the requested data.
system.membus.snoop_filter.hit_single_requests      2184577                       # Number of requests hitting in the snoop filter with a single holder of the requested data.
system.membus.snoop_filter.hit_single_snoops            0                       # Number of snoops hitting in the snoop filter with a single holder of the requested data.
system.membus.snoop_filter.tot_requests       4386065                       # Total number of requests made to the snoop filter.
system.membus.snoop_filter.tot_snoops               0                       # Total number of snoops made to the snoop filter.
system.tol2bus.snoop_filter.hit_multi_requests            1                       # Number of requests hitting in the snoop filter with multiple (>1) holders of the requested data.
system.tol2bus.snoop_filter.hit_multi_snoops            0                       # Number of snoops hitting in the snoop filter with multiple (>1) holders of the requested data.
system.tol2bus.snoop_filter.hit_single_requests      2407591                       # Number of requests hitting in the snoop filter with a single holder of the requested data.
system.tol2bus.snoop_filter.hit_single_snoops        10796                       # Number of snoops hitting in the snoop filter with a single holder of the requested data.
system.tol2bus.snoop_filter.tot_requests      4817749                       # Total number of requests made to the snoop filter.
system.tol2bus.snoop_filter.tot_snoops          10796                       # Total number of snoops made to the snoop filter.
system.membus.trans_dist::ReadResp            1046250                       # Transaction distribution
system.membus.trans_dist::WritebackDirty      1178227                       # Transaction distribution
system.membus.trans_dist::CleanEvict          1006350                       # Transaction distribution
system.membus.trans_dist::ReadExReq           1155238                       # Transaction distribution
system.membus.trans_dist::ReadExResp          1155238                       # Transaction distribution
system.membus.trans_dist::ReadSharedReq       1046250                       # Transaction distribution
system.membus.pkt_count_system.l2.mem_side::system.mem_ctrls.port      6587553                       # Packet count per connected master and slave (bytes)
system.membus.pkt_count_system.l2.mem_side::total      6587553                       # Packet count per connected master and slave (bytes)
system.membus.pkt_count::total                6587553                       # Packet count per connected master and slave (bytes)
system.membus.pkt_size_system.l2.mem_side::system.mem_ctrls.port    216301760                       # Cumulative packet size per connected master and slave (bytes)
system.membus.pkt_size_system.l2.mem_side::total    216301760                       # Cumulative packet size per connected master and slave (bytes)
system.membus.pkt_size::total               216301760                       # Cumulative packet size per connected master and slave (bytes)
system.membus.snoops                                0                       # Total snoops (count)
system.membus.snoopTraffic                          0                       # Total snoop traffic (bytes)
system.membus.snoop_fanout::samples           2201488                       # Request fanout histogram
system.membus.snoop_fanout::mean                    0                       # Request fanout histogram
system.membus.snoop_fanout::stdev                   0                       # Request fanout histogram
system.membus.snoop_fanout::underflows              0      0.00%      0.00% # Request fanout histogram
system.membus.snoop_fanout::0                 2201488    100.00%    100.00% # Request fanout histogram
system.membus.snoop_fanout::1                       0      0.00%    100.00% # Request fanout histogram
system.membus.snoop_fanout::overflows               0      0.00%    100.00% # Request fanout histogram
system.membus.snoop_fanout::min_value               0                       # Request fanout histogram
system.membus.snoop_fanout::max_value               0                       # Request fanout histogram
system.membus.snoop_fanout::total             2201488                       # Request fanout histogram
system.membus.reqLayer2.occupancy          9130801500                       # Layer occupancy (ticks)
system.membus.reqLayer2.utilization               2.4                       # Layer utilization (%)
system.membus.respLayer1.occupancy        11616435750                       # Layer occupancy (ticks)
system.membus.respLayer1.utilization              3.1                       # Layer utilization (%)
system.membus.power_state.pwrStateResidencyTicks::UNDEFINED 380164710500                       # Cumulative time (in ticks) in various power states
system.tol2bus.trans_dist::ReadResp           1177332                       # Transaction distribution
system.tol2bus.trans_dist::WritebackDirty      2577286                       # Transaction distribution
system.tol2bus.trans_dist::WritebackClean            2                       # Transaction distribution
system.tol2bus.trans_dist::CleanEvict         2016036                       # Transaction distribution
system.tol2bus.trans_dist::ReadExReq          1232826                       # Transaction distribution
system.tol2bus.trans_dist::ReadExResp         1232826                       # Transaction distribution
system.tol2bus.trans_dist::ReadCleanReq           521                       # Transaction distribution
system.tol2bus.trans_dist::ReadSharedReq      1176811                       # Transaction distribution
system.tol2bus.pkt_count_system.cpu.icache.mem_side::system.l2.cpu_side         1044                       # Packet count per connected master and slave (bytes)
system.tol2bus.pkt_count_system.cpu.dcache.mem_side::system.l2.cpu_side      7226863                       # Packet count per connected master and slave (bytes)
system.tol2bus.pkt_count::total               7227907                       # Packet count per connected master and slave (bytes)
system.tol2bus.pkt_size_system.cpu.icache.mem_side::system.l2.cpu_side        33472                       # Cumulative packet size per connected master and slave (bytes)
system.tol2bus.pkt_size_system.cpu.dcache.mem_side::system.l2.cpu_side    243756544                       # Cumulative packet size per connected master and slave (bytes)
system.tol2bus.pkt_size::total              243790016                       # Cumulative packet size per connected master and slave (bytes)
system.tol2bus.snoops                         2185733                       # Total snoops (count)
system.tol2bus.snoopTraffic                  75406528                       # Total snoop traffic (bytes)
system.tol2bus.snoop_fanout::samples          4595891                       # Request fanout histogram
system.tol2bus.snoop_fanout::mean            0.002349                       # Request fanout histogram
system.tol2bus.snoop_fanout::stdev           0.048412                       # Request fanout histogram
system.tol2bus.snoop_fanout::underflows             0      0.00%      0.00% # Request fanout histogram
system.tol2bus.snoop_fanout::0                4585094     99.77%     99.77% # Request fanout histogram
system.tol2bus.snoop_fanout::1                  10797      0.23%    100.00% # Request fanout histogram
system.tol2bus.snoop_fanout::2                      0      0.00%    100.00% # Request fanout histogram
system.tol2bus.snoop_fanout::3                      0      0.00%    100.00% # Request fanout histogram
system.tol2bus.snoop_fanout::4                      0      0.00%    100.00% # Request fanout histogram
system.tol2bus.snoop_fanout::overflows              0      0.00%    100.00% # Request fanout histogram
system.tol2bus.snoop_fanout::min_value              0                       # Request fanout histogram
system.tol2bus.snoop_fanout::max_value              1                       # Request fanout histogram
system.tol2bus.snoop_fanout::total            4595891                       # Request fanout histogram
system.tol2bus.reqLayer0.occupancy         3807935500                       # Layer occupancy (ticks)
system.tol2bus.reqLayer0.utilization              1.0                       # Layer utilization (%)
system.tol2bus.respLayer1.occupancy        3614455500                       # Layer occupancy (ticks)
system.tol2bus.respLayer1.utilization             1.0                       # Layer utilization (%)
system.tol2bus.respLayer0.occupancy            781500                       # Layer occupancy (ticks)
system.tol2bus.respLayer0.utilization             0.0                       # Layer utilization (%)
system.tol2bus.power_state.pwrStateResidencyTicks::UNDEFINED 380164710500                       # Cumulative time (in ticks) in various power states
system.voltage_domain.voltage                       1                       # Voltage in Volts
system.clk_domain.clock                          1000                       # Clock period in ticks
system.l2.demand_hits::.cpu.inst                    1                       # number of demand (read+write) hits
system.l2.demand_hits::.cpu.data               208669                       # number of demand (read+write) hits
system.l2.demand_hits::total                   208670                       # number of demand (read+write) hits
system.l2.overall_hits::.cpu.inst                   1                       # number of overall hits
system.l2.overall_hits::.cpu.data              208669                       # number of overall hits
system.l2.overall_hits::total                  208670                       # number of overall hits
system.l2.demand_misses::.cpu.inst                520                       # number of demand (read+write) misses
system.l2.demand_misses::.cpu.data            2200968                       # number of demand (read+write) misses
system.l2.demand_misses::total                2201488                       # number of demand (read+write) misses
system.l2.overall_misses::.cpu.inst               520                       # number of overall misses
system.l2.overall_misses::.cpu.data           2200968                       # number of overall misses
system.l2.overall_misses::total               2201488                       # number of overall misses
system.l2.demand_miss_latency::.cpu.inst     39552500                       # number of demand (read+write) miss cycles
system.l2.demand_miss_latency::.cpu.data 168296844000                       # number of demand (read+write) miss cycles
system.l2.demand_miss_latency::total     168336396500                       # number of demand (read+write) miss cycles
system.l2.overall_miss_latency::.cpu.inst     39552500                       # number of overall miss cycles
system.l2.overall_miss_latency::.cpu.data 168296844000                       # number of overall miss cycles
system.l2.overall_miss_latency::total    168336396500                       # number of overall miss cycles
system.l2.demand_accesses::.cpu.inst              521                       # number of demand (read+write) accesses
system.l2.demand_accesses::.cpu.data          2409637                       # number of demand (read+write) accesses
system.l2.demand_accesses::total              2410158                       # number of demand (read+write) accesses
system.l2.overall_accesses::.cpu.inst             521                       # number of overall (read+write) accesses
system.l2.overall_accesses::.cpu.data         2409637                       # number of overall (read+write) accesses
system.l2.overall_accesses::total             2410158                       # number of overall (read+write) accesses
system.l2.demand_miss_rate::.cpu.inst        0.998081                       # miss rate for demand accesses
system.l2.demand_miss_rate::.cpu.data        0.913402                       # miss rate for demand accesses
system.l2.demand_miss_rate::total            0.913421                       # miss rate for demand accesses
system.l2.overall_miss_rate::.cpu.inst       0.998081                       # miss rate for overall accesses
system.l2.overall_miss_rate::.cpu.data       0.913402                       # miss rate for overall accesses
system.l2.overall_miss_rate::total           0.913421                       # miss rate for overall accesses
system.l2.demand_avg_miss_latency::.cpu.inst 76062.500000                       # average overall miss latency
system.l2.demand_avg_miss_latency::.cpu.data 76464.920889                       # average overall miss latency
system.l2.demand_avg_miss_latency::total 76464.825836                       # average overall miss latency
system.l2.overall_avg_miss_latency::.cpu.inst 76062.500000                       # average overall miss latency
system.l2.overall_avg_miss_latency::.cpu.data 76464.920889                       # average overall miss latency
system.l2.overall_avg_miss_latency::total 76464.825836                       # average overall miss latency
system.l2.blocked_cycles::no_mshrs                  0                       # number of cycles access was blocked
system.l2.blocked_cycles::no_targets                0                       # number of cycles access was blocked
system.l2.blocked::no_mshrs                         0                       # number of cycles access was blocked
system.l2.blocked::no_targets                       0                       # number of cycles access was blocked
system.l2.avg_blocked_cycles::no_mshrs            nan                       # average number of cycles each access was blocked
system.l2.avg_blocked_cycles::no_targets          nan                       # average number of cycles each access was blocked
system.l2.writebacks::.writebacks             1178227                       # number of writebacks
system.l2.writebacks::total                   1178227                       # number of writebacks
system.l2.demand_mshr_misses::.cpu.inst           520                       # number of demand (read+write) MSHR misses
system.l2.demand_mshr_misses::.cpu.data       2200968                       # number of demand (read+write) MSHR misses
system.l2.demand_mshr_misses::total           2201488                       # number of demand (read+write) MSHR misses
system.l2.overall_mshr_misses::.cpu.inst          520                       # number of overall MSHR misses
system.l2.overall_mshr_misses::.cpu.data      2200968                       # number of overall MSHR misses
system.l2.overall_mshr_misses::total          2201488                       # number of overall MSHR misses
system.l2.demand_mshr_miss_latency::.cpu.inst     34352500                       # number of demand (read+write) MSHR miss cycles
system.l2.demand_mshr_miss_latency::.cpu.data 146287164000                       # number of demand (read+write) MSHR miss cycles
system.l2.demand_mshr_miss_latency::total 146321516500                       # number of demand (read+write) MSHR miss cycles
system.l2.overall_mshr_miss_latency::.cpu.inst     34352500                       # number of overall MSHR miss cycles
system.l2.overall_mshr_miss_latency::.cpu.data 146287164000                       # number of overall MSHR miss cycles
system.l2.overall_mshr_miss_latency::total 146321516500                       # number of overall MSHR miss cycles
system.l2.demand_mshr_miss_rate::.cpu.inst     0.998081                       # mshr miss rate for demand accesses
system.l2.demand_mshr_miss_rate::.cpu.data     0.913402                       # mshr miss rate for demand accesses
system.l2.demand_mshr_miss_rate::total       0.913421                       # mshr miss rate for demand accesses
system.l2.overall_mshr_miss_rate::.cpu.inst     0.998081                       # mshr miss rate for overall accesses
system.l2.overall_mshr_miss_rate::.cpu.data     0.913402                       # mshr miss rate for overall accesses
system.l2.overall_mshr_miss_rate::total      0.913421                       # mshr miss rate for overall accesses
system.l2.demand_avg_mshr_miss_latency::.cpu.inst 66062.500000                       # average overall mshr miss latency
system.l2.demand_avg_mshr_miss_latency::.cpu.data 66464.920889                       # average overall mshr miss latency
system.l2.demand_avg_mshr_miss_latency::total 66464.825836                       # average overall mshr miss latency
system.l2.overall_avg_mshr_miss_latency::.cpu.inst 66062.500000                       # average overall mshr miss latency
system.l2.overall_avg_mshr_miss_latency::.cpu.data 66464.920889                       # average overall mshr miss latency
system.l2.overall_avg_mshr_miss_latency::total 66464.825836                       # average overall mshr miss latency
system.l2.replacements                        2185733                       # number of replacements
system.l2.WritebackDirty_hits::.writebacks      1399059                       # number of WritebackDirty hits
system.l2.WritebackDirty_hits::total          1399059                       # number of WritebackDirty hits
system.l2.WritebackDirty_accesses::.writebacks      1399059                       # number of WritebackDirty accesses(hits+misses)
system.l2.WritebackDirty_accesses::total      1399059                       # number of WritebackDirty accesses(hits+misses)
system.l2.WritebackClean_hits::.writebacks            2                       # number of WritebackClean hits
system.l2.WritebackClean_hits::total                2                       # number of WritebackClean hits
system.l2.WritebackClean_accesses::.writebacks            2                       # number of WritebackClean accesses(hits+misses)
system.l2.WritebackClean_accesses::total            2                       # number of WritebackClean accesses(hits+misses)
system.l2.CleanEvict_mshr_misses::.writebacks         9640                       # number of CleanEvict MSHR misses
system.l2.CleanEvict_mshr_misses::total          9640                       # number of CleanEvict MSHR misses
system.l2.CleanEvict_mshr_miss_rate::.writebacks          inf                       # mshr miss rate for CleanEvict accesses
system.l2.CleanEvict_mshr_miss_rate::total          inf                       # mshr miss rate for CleanEvict accesses
system.l2.ReadExReq_hits::.cpu.data             77588                       # number of ReadExReq hits
system.l2.ReadExReq_hits::total                 77588                       # number of ReadExReq hits
system.l2.ReadExReq_misses::.cpu.data         1155238                       # number of ReadExReq misses
system.l2.ReadExReq_misses::total             1155238                       # number of ReadExReq misses
system.l2.ReadExReq_miss_latency::.cpu.data  87119210000                       # number of ReadExReq miss cycles
system.l2.ReadExReq_miss_latency::total   87119210000                       # number of ReadExReq miss cycles
system.l2.ReadExReq_accesses::.cpu.data       1232826                       # number of ReadExReq accesses(hits+misses)
system.l2.ReadExReq_accesses::total           1232826                       # number of ReadExReq accesses(hits+misses)
system.l2.ReadExReq_miss_rate::.cpu.data     0.937065                       # miss rate for ReadExReq accesses
system.l2.ReadExReq_miss_rate::total         0.937065                       # miss rate for ReadExReq accesses
system.l2.ReadExReq_avg_miss_latency::.cpu.data 75412.347932                       # average ReadExReq miss latency
system.l2.ReadExReq_avg_miss_latency::total 75412.347932                       # average ReadExReq miss latency
system.l2.ReadExReq_mshr_misses::.cpu.data      1155238                       # number of ReadExReq MSHR misses
system.l2.ReadExReq_mshr_misses::total        1155238                       # number of ReadExReq MSHR misses
system.l2.ReadExReq_mshr_miss_latency::.cpu.data  75566830000                       # number of ReadExReq MSHR miss cycles
system.l2.ReadExReq_mshr_miss_latency::total  75566830000                       # number of ReadExReq MSHR miss cycles
system.l2.ReadExReq_mshr_miss_rate::.cpu.data     0.937065                       # mshr miss rate for ReadExReq accesses
system.l2.ReadExReq_mshr_miss_rate::total     0.937065                       # mshr miss rate for ReadExReq accesses
system.l2.ReadExReq_avg_mshr_miss_latency::.cpu.data 65412.347932                       # average ReadExReq mshr miss latency
system.l2.ReadExReq_avg_mshr_miss_latency::total 65412.347932                       # average ReadExReq mshr miss latency
system.l2.ReadCleanReq_hits::.cpu.inst              1                       # number of ReadCleanReq hits
system.l2.ReadCleanReq_hits::total                  1                       # number of ReadCleanReq hits
system.l2.ReadCleanReq_misses::.cpu.inst          520                       # number of ReadCleanReq misses
system.l2.ReadCleanReq_misses::total              520                       # number of ReadCleanReq misses
system.l2.ReadCleanReq_miss_latency::.cpu.inst     39552500                       # number of ReadCleanReq miss cycles
system.l2.ReadCleanReq_miss_latency::total     39552500                       # number of ReadCleanReq miss cycles
system.l2.ReadCleanReq_accesses::.cpu.inst          521                       # number of ReadCleanReq accesses(hits+misses)
system.l2.ReadCleanReq_accesses::total            521                       # number of ReadCleanReq accesses(hits+misses)
system.l2.ReadCleanReq_miss_rate::.cpu.inst     0.998081                       # miss rate for ReadCleanReq accesses
system.l2.ReadCleanReq_miss_rate::total      0.998081                       # miss rate for ReadCleanReq accesses
system.l2.ReadCleanReq_avg_miss_latency::.cpu.inst 76062.500000                       # average ReadCleanReq miss latency
system.l2.ReadCleanReq_avg_miss_latency::total 76062.500000                       # average ReadCleanReq miss latency
system.l2.ReadCleanReq_mshr_misses::.cpu.inst          520                       # number of ReadCleanReq MSHR misses
system.l2.ReadCleanReq_mshr_misses::total          520                       # number of ReadCleanReq MSHR misses
system.l2.ReadCleanReq_mshr_miss_latency::.cpu.inst     34352500                       # number of ReadCleanReq MSHR miss cycles
system.l2.ReadCleanReq_mshr_miss_latency::total     34352500                       # number of ReadCleanReq MSHR miss cycles
system.l2.ReadCleanReq_mshr_miss_rate::.cpu.inst     0.998081                       # mshr miss rate for ReadCleanReq accesses
system.l2.ReadCleanReq_mshr_miss_rate::total     0.998081                       # mshr miss rate for ReadCleanReq accesses
system.l2.ReadCleanReq_avg_mshr_miss_latency::.cpu.inst 66062.500000                       # average ReadCleanReq mshr miss latency
system.l2.ReadCleanReq_avg_mshr_miss_latency::total 66062.500000                       # average ReadCleanReq mshr miss latency
system.l2.ReadSharedReq_hits::.cpu.data        131081                       # number of ReadSharedReq hits
system.l2.ReadSharedReq_hits::total            131081                       # number of ReadSharedReq hits
system.l2.ReadSharedReq_misses::.cpu.data      1045730                       # number of ReadSharedReq misses
system.l2.ReadSharedReq_misses::total         1045730                       # number of ReadSharedReq misses
system.l2.ReadSharedReq_miss_latency::.cpu.data  81177634000                       # number of ReadSharedReq miss cycles
system.l2.ReadSharedReq_miss_latency::total  81177634000                       # number of ReadSharedReq miss cycles
system.l2.ReadSharedReq_accesses::.cpu.data      1176811                       # number of ReadSharedReq accesses(hits+misses)
system.l2.ReadSharedReq_accesses::total       1176811                       # number of ReadSharedReq accesses(hits+misses)
system.l2.ReadSharedReq_miss_rate::.cpu.data     0.888613                       # miss rate for ReadSharedReq accesses
system.l2.ReadSharedReq_miss_rate::total     0.888613                       # miss rate for ReadSharedReq accesses
system.l2.ReadSharedReq_avg_miss_latency::.cpu.data 77627.718436                       # average ReadSharedReq miss latency
system.l2.ReadSharedReq_avg_miss_latency::total 77627.718436                       # average ReadSharedReq miss latency
system.l2.ReadSharedReq_mshr_misses::.cpu.data      1045730                       # number of ReadSharedReq MSHR misses
system.l2.ReadSharedReq_mshr_misses::total      1045730                       # number of ReadSharedReq MSHR misses
system.l2.ReadSharedReq_mshr_miss_latency::.cpu.data  70720334000                       # number of ReadSharedReq MSHR miss cycles
system.l2.ReadSharedReq_mshr_miss_latency::total  70720334000                       # number of ReadSharedReq MSHR miss cycles
system.l2.ReadSharedReq_mshr_miss_rate::.cpu.data     0.888613                       # mshr miss rate for ReadSharedReq accesses
system.l2.ReadSharedReq_mshr_miss_rate::total     0.888613                       # mshr miss rate for ReadSharedReq accesses
system.l2.ReadSharedReq_avg_mshr_miss_latency::.cpu.data 67627.718436                       # average ReadSharedReq mshr miss latency
system.l2.ReadSharedReq_avg_mshr_miss_latency::total 67627.718436                       # average ReadSharedReq mshr miss latency
system.l2.power_state.pwrStateResidencyTicks::UNDEFINED 380164710500                       # Cumulative time (in ticks) in various power states
system.l2.tags.tagsinuse                 15510.083198                       # Cycle average of tags in use
system.l2.tags.total_refs                     4808108                       # Total number of references to valid blocks.
system.l2.tags.sampled_refs                   2202117                       # Sample count of references to valid blocks.
system.l2.tags.avg_refs                      2.183403                       # Average number of references to valid blocks.
system.l2.tags.warmup_cycle                     77000                       # Cycle when the warmup percentage was hit.
system.l2.tags.occ_blocks::.writebacks      20.072781                       # Average occupied blocks per requestor
system.l2.tags.occ_blocks::.cpu.inst        33.947644                       # Average occupied blocks per requestor
system.l2.tags.occ_blocks::.cpu.data     15456.062773                       # Average occupied blocks per requestor
system.l2.tags.occ_percent::.writebacks      0.001225                       # Average percentage of cache occupancy
system.l2.tags.occ_percent::.cpu.inst        0.002072                       # Average percentage of cache occupancy
system.l2.tags.occ_percent::.cpu.data        0.943363                       # Average percentage of cache occupancy
system.l2.tags.occ_percent::total            0.946660                       # Average percentage of cache occupancy
system.l2.tags.occ_task_id_blocks::1024         16384                       # Occupied blocks per task id
system.l2.tags.age_task_id_blocks_1024::0           12                       # Occupied blocks per task id
system.l2.tags.age_task_id_blocks_1024::1           95                       # Occupied blocks per task id
system.l2.tags.age_task_id_blocks_1024::2          987                       # Occupied blocks per task id
system.l2.tags.age_task_id_blocks_1024::3         8623                       # Occupied blocks per task id
system.l2.tags.age_task_id_blocks_1024::4         6667                       # Occupied blocks per task id
system.l2.tags.occ_task_id_percent::1024            1                       # Percentage of cache occupancy per task id
system.l2.tags.tag_accesses                  21473109                       # Number of tag accesses
system.l2.tags.data_accesses                 21473109                       # Number of data accesses
system.l2.tags.power_state.pwrStateResidencyTicks::UNDEFINED 380164710500                       # Cumulative time (in ticks) in various power states
system.cpu_voltage_domain.voltage                   1                       # Voltage in Volts
system.mem_ctrls.bytes_read::.cpu.inst          33280                       # Number of bytes read from this memory
system.mem_ctrls.bytes_read::.cpu.data      140861952                       # Number of bytes read from this memory
system.mem_ctrls.bytes_read::total          140895232                       # Number of bytes read from this memory
system.mem_ctrls.bytes_inst_read::.cpu.inst        33280                       # Number of instructions bytes read from this memory
system.mem_ctrls.bytes_inst_read::total         33280                       # Number of instructions bytes read from this memory
system.mem_ctrls.bytes_written::.writebacks     75406528                       # Number of bytes written to this memory
system.mem_ctrls.bytes_written::total        75406528                       # Number of bytes written to this memory
system.mem_ctrls.num_reads::.cpu.inst             520                       # Number of read requests responded to by this memory
system.mem_ctrls.num_reads::.cpu.data         2200968                       # Number of read requests responded to by this memory
system.mem_ctrls.num_reads::total             2201488                       # Number of read requests responded to by this memory
system.mem_ctrls.num_writes::.writebacks      1178227                       # Number of write requests responded to by this memory
system.mem_ctrls.num_writes::total            1178227                       # Number of write requests responded to by this memory
system.mem_ctrls.bw_read::.cpu.inst             87541                       # Total read bandwidth from this memory (bytes/s)
system.mem_ctrls.bw_read::.cpu.data         370528742                       # Total read bandwidth from this memory (bytes/s)
system.mem_ctrls.bw_read::total             370616283                       # Total read bandwidth from this memory (bytes/s)
system.mem_ctrls.bw_inst_read::.cpu.inst        87541                       # Instruction read bandwidth from this memory (bytes/s)
system.mem_ctrls.bw_inst_read::total            87541                       # Instruction read bandwidth from this memory (bytes/s)
system.mem_ctrls.bw_write::.writebacks      198352256                       # Write bandwidth from this memory (bytes/s)
system.mem_ctrls.bw_write::total            198352256                       # Write bandwidth from this memory (bytes/s)
system.mem_ctrls.bw_total::.writebacks      198352256                       # Total bandwidth to/from this memory (bytes/s)
system.mem_ctrls.bw_total::.cpu.inst            87541                       # Total bandwidth to/from this memory (bytes/s)
system.mem_ctrls.bw_total::.cpu.data        370528742                       # Total bandwidth to/from this memory (bytes/s)
system.mem_ctrls.bw_total::total            568968539                       # Total bandwidth to/from this memory (bytes/s)
system.mem_ctrls.avgPriority_.writebacks::samples   1178227.00                       # Average QoS priority value for accepted requests
system.mem_ctrls.avgPriority_.cpu.inst::samples       520.00                       # Average QoS priority value for accepted requests
system.mem_ctrls.avgPriority_.cpu.data::samples   2200844.00                       # Average QoS priority value for accepted requests
system.mem_ctrls.priorityMinLatency      0.000000018750                       # per QoS priority minimum request to response latency (s)
system.mem_ctrls.priorityMaxLatency      0.063841696250                       # per QoS priority maximum request to response latency (s)
system.mem_ctrls.numReadWriteTurnArounds        73213                       # Number of turnarounds from READ to WRITE
system.mem_ctrls.numWriteReadTurnArounds        73213                       # Number of turnarounds from WRITE to READ
system.mem_ctrls.numStayReadState             5601251                       # Number of times bus staying in READ state
system.mem_ctrls.numStayWriteState            1106425                       # Number of times bus staying in WRITE state
system.mem_ctrls.readReqs                     2201488                       # Number of read requests accepted
system.mem_ctrls.writeReqs                    1178227                       # Number of write requests accepted
system.mem_ctrls.readBursts                   2201488                       # Number of DRAM read bursts, including those serviced by the write queue
system.mem_ctrls.writeBursts                  1178227                       # Number of DRAM write bursts, including those merged in the write queue
system.mem_ctrls.servicedByWrQ                    124                       # Number of DRAM read bursts serviced by the write queue
system.mem_ctrls.mergedWrBursts                     0                       # Number of DRAM write bursts merged with an existing one
system.mem_ctrls.neitherReadNorWriteReqs            0                       # Number of requests that are neither read nor write
system.mem_ctrls.perBankRdBursts::0            137584                       # Per bank write bursts
system.mem_ctrls.perBankRdBursts::1            137649                       # Per bank write bursts
system.mem_ctrls.perBankRdBursts::2            137572                       # Per bank write bursts
system.mem_ctrls.perBankRdBursts::3            137658                       # Per bank write bursts
system.mem_ctrls.perBankRdBursts::4            137705                       # Per bank write bursts
system.mem_ctrls.perBankRdBursts::5            137871                       # Per bank write bursts
system.mem_ctrls.perBankRdBursts::6            137785                       # Per bank write bursts
system.mem_ctrls.perBankRdBursts::7            137673                       # Per bank write bursts
system.mem_ctrls.perBankRdBursts::8            137933                       # Per bank write bursts
system.mem_ctrls.perBankRdBursts::9            137512                       # Per bank write bursts
system.mem_ctrls.perBankRdBursts::10           137631                       # Per bank write bursts
system.mem_ctrls.perBankRdBursts::11           137748                       # Per bank write bursts
system.mem_ctrls.perBankRdBursts::12           137368                       # Per bank write bursts
system.mem_ctrls.perBankRdBursts::13           137054                       # Per bank write bursts
system.mem_ctrls.perBankRdBursts::14           137386                       # Per bank write bursts
system.mem_ctrls.perBankRdBursts::15           137235                       # Per bank write bursts
system.mem_ctrls.perBankWrBursts::0             73688                       # Per bank write bursts
system.mem_ctrls.perBankWrBursts::1             73822                       # Per bank write bursts
system.mem_ctrls.perBankWrBursts::2             73835                       # Per bank write bursts
system.mem_ctrls.perBankWrBursts::3             73943                       # Per bank write bursts
system.mem_ctrls.perBankWrBursts::4             73421                       # Per bank write bursts
system.mem_ctrls.perBankWrBursts::5             73513                       # Per bank write bursts
system.mem_ctrls.perBankWrBursts::6             73550                       # Per bank write bursts
system.mem_ctrls.perBankWrBursts::7             73526                       # Per bank write bursts
system.mem_ctrls.perBankWrBursts::8             73774                       # Per bank write bursts
system.mem_ctrls.perBankWrBursts::9             73510                       # Per bank write bursts
system.mem_ctrls.perBankWrBursts::10            73655                       # Per bank write bursts
system.mem_ctrls.perBankWrBursts::11            73838                       # Per bank write bursts
system.mem_ctrls.perBankWrBursts::12            73656                       # Per bank write bursts
system.mem_ctrls.perBankWrBursts::13            73406                       # Per bank write bursts
system.mem_ctrls.perBankWrBursts::14            73622                       # Per bank write bursts
system.mem_ctrls.perBankWrBursts::15            73437                       # Per bank write bursts
system.mem_ctrls.avgRdQLen                       1.01                       # Average read queue length when enqueuing
system.mem_ctrls.avgWrQLen                      25.33                       # Average write queue length when enqueuing
system.mem_ctrls.totQLat                  15232423250                       # Total ticks spent queuing
system.mem_ctrls.totBusLat                11006820000                       # Total ticks spent in databus transfers
system.mem_ctrls.totMemAccLat             56507998250                       # Total ticks spent from burst creation until serviced by the DRAM
system.mem_ctrls.avgQLat                      6919.54                       # Average queueing delay per DRAM burst
system.mem_ctrls.avgBusLat                    5000.00                       # Average bus latency per DRAM burst
system.mem_ctrls.avgMemAccLat                25669.54                       # Average memory access latency per DRAM burst
system.mem_ctrls.numRdRetry                         0                       # Number of times read queue was full causing retry
system.mem_ctrls.numWrRetry                         0                       # Number of times write queue was full causing retry
system.mem_ctrls.readRowHits                  1934773                       # Number of row buffer hits during reads
system.mem_ctrls.writeRowHits                 1047429                       # Number of row buffer hits during writes
system.mem_ctrls.readRowHitRate                 87.89                       # Row buffer hit rate for reads
system.mem_ctrls.writeRowHitRate                88.90                       # Row buffer hit rate for writes
system.mem_ctrls.readPktSize::0                     0                       # Read request sizes (log2)
system.mem_ctrls.readPktSize::1                     0                       # Read request sizes (log2)
system.mem_ctrls.readPktSize::2                     0                       # Read request sizes (log2)
system.mem_ctrls.readPktSize::3                     0                       # Read request sizes (log2)
system.mem_ctrls.readPktSize::4                     0                       # Read request sizes (log2)
system.mem_ctrls.readPktSize::5                     0                       # Read request sizes (log2)
system.mem_ctrls.readPktSize::6               2201488                       # Read request sizes (log2)
system.mem_ctrls.writePktSize::0                    0                       # Write request sizes (log2)
system.mem_ctrls.writePktSize::1                    0                       # Write request sizes (log2)
system.mem_ctrls.writePktSize::2                    0                       # Write request sizes (log2)
system.mem_ctrls.writePktSize::3                    0                       # Write request sizes (log2)
system.mem_ctrls.writePktSize::4                    0                       # Write request sizes (log2)
system.mem_ctrls.writePktSize::5                    0                       # Write request sizes (log2)
system.mem_ctrls.writePktSize::6              1178227                       # Write request sizes (log2)
system.mem_ctrls.rdQLenPdf::0                 2166230                       # What read queue length does an incoming req see
system.mem_ctrls.rdQLenPdf::1                   30918                       # What read queue length does an incoming req see
system.mem_ctrls.rdQLenPdf::2                    2361                       # What read queue length does an incoming req see
system.mem_ctrls.rdQLenPdf::3                    1855                       # What read queue length does an incoming req see
system.mem_ctrls.rdQLenPdf::4                       0                       # What read queue length does an incoming req see
system.mem_ctrls.rdQLenPdf::5                       0                       # What read queue length does an incoming req see
system.mem_ctrls.rdQLenPdf::6                       0                       # What read queue length does an incoming req see
system.mem_ctrls.rdQLenPdf::7                       0                       # What read queue length does an incoming req see
system.mem_ctrls.rdQLenPdf::8                       0                       # What read queue length does an incoming req see
system.mem_ctrls.rdQLenPdf::9                       0                       # What read queue length does an incoming req see
system.mem_ctrls.rdQLenPdf::10                      0                       # What read queue length does an incoming req see
system.mem_ctrls.rdQLenPdf::11                      0                       # What read queue length does an incoming req see
system.mem_ctrls.rdQLenPdf::12                      0                       # What read queue length does an incoming req see
system.mem_ctrls.rdQLenPdf::13                      0                       # What read queue length does an incoming req see
system.mem_ctrls.rdQLenPdf::14                      0                       # What read queue length does an incoming req see
system.mem_ctrls.rdQLenPdf::15                      0                       # What read queue length does an incoming req see
system.mem_ctrls.rdQLenPdf::16                      0                       # What read queue length does an incoming req see
system.mem_ctrls.rdQLenPdf::17                      0                       # What read queue length does an incoming req see
system.mem_ctrls.rdQLenPdf::18                      0                       # What read queue length does an incoming req see
system.mem_ctrls.rdQLenPdf::19                      0                       # What read queue length does an incoming req see
system.mem_ctrls.rdQLenPdf::20                      0                       # What read queue length does an incoming req see
system.mem_ctrls.rdQLenPdf::21                      0                       # What read queue length does an incoming req see
system.mem_ctrls.rdQLenPdf::22                      0                       # What read queue length does an incoming req see
system.mem_ctrls.rdQLenPdf::23                      0                       # What read queue length does an incoming req see
system.mem_ctrls.rdQLenPdf::24                      0                       # What read queue length does an incoming req see
system.mem_ctrls.rdQLenPdf::25                      0                       # What read queue length does an incoming req see
system.mem_ctrls.rdQLenPdf::26                      0                       # What read queue length does an incoming req see
system.mem_ctrls.rdQLenPdf::27                      0                       # What read queue length does an incoming req see
system.mem_ctrls.rdQLenPdf::28                      0                       # What read queue length does an incoming req see
system.mem_ctrls.rdQLenPdf::29                      0                       # What read queue length does an incoming req see
system.mem_ctrls.rdQLenPdf::30                      0                       # What read queue length does an incoming req see
system.mem_ctrls.rdQLenPdf::31                      0                       # What read queue length does an incoming req see
system.mem_ctrls.wrQLenPdf::0                       1                       # What write queue length does an incoming req see
system.mem_ctrls.wrQLenPdf::1                       1                       # What write queue length does an incoming req see
system.mem_ctrls.wrQLenPdf::2                       1                       # What write queue length does an incoming req see
system.mem_ctrls.wrQLenPdf::3                       1                       # What write queue length does an incoming req see
system.mem_ctrls.wrQLenPdf::4                       1                       # What write queue length does an incoming req see
system.mem_ctrls.wrQLenPdf::5                       1                       # What write queue length does an incoming req see
system.mem_ctrls.wrQLenPdf::6                       1                       # What write queue length does an incoming req see
system.mem_ctrls.wrQLenPdf::7                       1                       # What write queue length does an incoming req see
system.mem_ctrls.wrQLenPdf::8                       1                       # What write queue length does an incoming req see
system.mem_ctrls.wrQLenPdf::9                       1                       # What write queue length does an incoming req see
system.mem_ctrls.wrQLenPdf::10                      1                       # What write queue length does an incoming req see
system.mem_ctrls.wrQLenPdf::11                      1                       # What write queue length does an incoming req see
system.mem_ctrls.wrQLenPdf::12                      1                       # What write queue length does an incoming req see
system.mem_ctrls.wrQLenPdf::13                      1                       # What write queue length does an incoming req see
system.mem_ctrls.wrQLenPdf::14                      1                       # What write queue length does an incoming req see
system.mem_ctrls.wrQLenPdf::15                   3360                       # What write queue length does an incoming req see
system.mem_ctrls.wrQLenPdf::16                   3386                       # What write queue length does an incoming req see
system.mem_ctrls.wrQLenPdf::17                  72222                       # What write queue length does an incoming req see
system.mem_ctrls.wrQLenPdf::18                  72874                       # What write queue length does an incoming req see
system.mem_ctrls.wrQLenPdf::19                  73114                       # What write queue length does an incoming req see
system.mem_ctrls.wrQLenPdf::20                  73224                       # What write queue length does an incoming req see
system.mem_ctrls.wrQLenPdf::21                  73243                       # What write queue length does an incoming req see
system.mem_ctrls.wrQLenPdf::22                  73484                       # What write queue length does an incoming req see
system.mem_ctrls.wrQLenPdf::23                  73327                       # What write queue length does an incoming req see
system.mem_ctrls.wrQLenPdf::24                  73422                       # What write queue length does an incoming req see
system.mem_ctrls.wrQLenPdf::25                  73235                       # What write queue length does an incoming req see
system.mem_ctrls.wrQLenPdf::26                  73222                       # What write queue length does an incoming req see
system.mem_ctrls.wrQLenPdf::27                  73225                       # What write queue length does an incoming req see
system.mem_ctrls.wrQLenPdf::28                  73220                       # What write queue length does an incoming req see
system.mem_ctrls.wrQLenPdf::29                  73695                       # What write queue length does an incoming req see
system.mem_ctrls.wrQLenPdf::30                  73235                       # What write queue length does an incoming req see
system.mem_ctrls.wrQLenPdf::31                  73497                       # What write queue length does an incoming req see
system.mem_ctrls.wrQLenPdf::32                  73222                       # What write queue length does an incoming req see
system.mem_ctrls.wrQLenPdf::33                      5                       # What write queue length does an incoming req see
system.mem_ctrls.wrQLenPdf::34                      0                       # What write queue length does an incoming req see
system.mem_ctrls.wrQLenPdf::35                      0                       # What write queue length does an incoming req see
system.mem_ctrls.wrQLenPdf::36                      0                       # What write queue length does an incoming req see
system.mem_ctrls.wrQLenPdf::37                      0                       # What write queue length does an incoming req see
system.mem_ctrls.wrQLenPdf::38                      0                       # What write queue length does an incoming req see
system.mem_ctrls.wrQLenPdf::39                      0                       # What write queue length does an incoming req see
system.mem_ctrls.wrQLenPdf::40                      0                       # What write queue length does an incoming req see
system.mem_ctrls.wrQLenPdf::41                      0                       # What write queue length does an incoming req see
system.mem_ctrls.wrQLenPdf::42                      0                       # What write queue length does an incoming req see
system.mem_ctrls.wrQLenPdf::43                      0                       # What write queue length does an incoming req see
system.mem_ctrls.wrQLenPdf::44                      0                       # What write queue length does an incoming req see
system.mem_ctrls.wrQLenPdf::45                      0                       # What write queue length does an incoming req see
system.mem_ctrls.wrQLenPdf::46                      0                       # What write queue length does an incoming req see
system.mem_ctrls.wrQLenPdf::47                      0                       # What write queue length does an incoming req see
system.mem_ctrls.wrQLenPdf::48                      0                       # What write queue length does an incoming req see
system.mem_ctrls.wrQLenPdf::49                      0                       # What write queue length does an incoming req see
system.mem_ctrls.wrQLenPdf::50                      0                       # What write queue length does an incoming req see
system.mem_ctrls.wrQLenPdf::51                      0                       # What write queue length does an incoming req see
system.mem_ctrls.wrQLenPdf::52                      0                       # What write queue length does an incoming req see
system.mem_ctrls.wrQLenPdf::53                      0                       # What write queue length does an incoming req see
system.mem_ctrls.wrQLenPdf::54                      0                       # What write queue length does an incoming req see
system.mem_ctrls.wrQLenPdf::55                      0                       # What write queue length does an incoming req see
system.mem_ctrls.wrQLenPdf::56                      0                       # What write queue length does an incoming req see
system.mem_ctrls.wrQLenPdf::57                      0                       # What write queue length does an incoming req see
system.mem_ctrls.wrQLenPdf::58                      0                       # What write queue length does an incoming req see
system.mem_ctrls.wrQLenPdf::59                      0                       # What write queue length does an incoming req see
system.mem_ctrls.wrQLenPdf::60                      0                       # What write queue length does an incoming req see
system.mem_ctrls.wrQLenPdf::61                      0                       # What write queue length does an incoming req see
system.mem_ctrls.wrQLenPdf::62                      0                       # What write queue length does an incoming req see
system.mem_ctrls.wrQLenPdf::63                      0                       # What write queue length does an incoming req see
system.mem_ctrls.bytesPerActivate::samples       397357                       # Bytes accessed per row activation
system.mem_ctrls.bytesPerActivate::mean    544.326075                       # Bytes accessed per row activation
system.mem_ctrls.bytesPerActivate::gmean   349.006250                       # Bytes accessed per row activation
system.mem_ctrls.bytesPerActivate::stdev   391.274133                       # Bytes accessed per row activation
system.mem_ctrls.bytesPerActivate::0-127        92906     23.38%     23.38% # Bytes accessed per row activation
system.mem_ctrls.bytesPerActivate::128-255        35844      9.02%     32.40% # Bytes accessed per row activation
system.mem_ctrls.bytesPerActivate::256-383        27886      7.02%     39.42% # Bytes accessed per row activation
system.mem_ctrls.bytesPerActivate::384-511        18971      4.77%     44.19% # Bytes accessed per row activation
system.mem_ctrls.bytesPerActivate::512-639        63128     15.89%     60.08% # Bytes accessed per row activation
system.mem_ctrls.bytesPerActivate::640-767         6229      1.57%     61.65% # Bytes accessed per row activation
system.mem_ctrls.bytesPerActivate::768-895        15629      3.93%     65.58% # Bytes accessed per row activation
system.mem_ctrls.bytesPerActivate::896-1023         9073      2.28%     67.86% # Bytes accessed per row activation
system.mem_ctrls.bytesPerActivate::1024-1151       127691     32.14%    100.00% # Bytes accessed per row activation
system.mem_ctrls.bytesPerActivate::total       397357                       # Bytes accessed per row activation
system.mem_ctrls.rdPerTurnAround::samples        73213                       # Reads before turning the bus around for writes
system.mem_ctrls.rdPerTurnAround::mean      30.067707                       # Reads before turning the bus around for writes
system.mem_ctrls.rdPerTurnAround::gmean     28.076523                       # Reads before turning the bus around for writes
system.mem_ctrls.rdPerTurnAround::stdev     40.054257                       # Reads before turning the bus around for writes
system.mem_ctrls.rdPerTurnAround::0-255         73096     99.84%     99.84% # Reads before turning the bus around for writes
system.mem_ctrls.rdPerTurnAround::256-511           59      0.08%     99.92% # Reads before turning the bus around for writes
system.mem_ctrls.rdPerTurnAround::512-767            2      0.00%     99.92% # Reads before turning the bus around for writes
system.mem_ctrls.rdPerTurnAround::768-1023           14      0.02%     99.94% # Reads before turning the bus around for writes
system.mem_ctrls.rdPerTurnAround::1024-1279           32      0.04%     99.99% # Reads before turning the bus around for writes
system.mem_ctrls.rdPerTurnAround::1280-1535            4      0.01%     99.99% # Reads before turning the bus around for writes
system.mem_ctrls.rdPerTurnAround::1536-1791            2      0.00%     99.99% # Reads before turning the bus around for writes
system.mem_ctrls.rdPerTurnAround::1792-2047            1      0.00%    100.00% # Reads before turning the bus around for writes
system.mem_ctrls.rdPerTurnAround::2304-2559            1      0.00%    100.00% # Reads before turning the bus around for writes
system.mem_ctrls.rdPerTurnAround::3840-4095            1      0.00%    100.00% # Reads before turning the bus around for writes
system.mem_ctrls.rdPerTurnAround::5120-5375            1      0.00%    100.00% # Reads before turning the bus around for writes
system.mem_ctrls.rdPerTurnAround::total         73213                       # Reads before turning the bus around for writes
system.mem_ctrls.wrPerTurnAround::samples        73213                       # Writes before turning the bus around for reads
system.mem_ctrls.wrPerTurnAround::mean      16.092716                       # Writes before turning the bus around for reads
system.mem_ctrls.wrPerTurnAround::gmean     16.087574                       # Writes before turning the bus around for reads
system.mem_ctrls.wrPerTurnAround::stdev      0.421850                       # Writes before turning the bus around for reads
system.mem_ctrls.wrPerTurnAround::16            69821     95.37%     95.37% # Writes before turning the bus around for reads
system.mem_ctrls.wrPerTurnAround::17               29      0.04%     95.41% # Writes before turning the bus around for reads
system.mem_ctrls.wrPerTurnAround::18             3335      4.56%     99.96% # Writes before turning the bus around for reads
system.mem_ctrls.wrPerTurnAround::19               24      0.03%     99.99% # Writes before turning the bus around for reads
system.mem_ctrls.wrPerTurnAround::20                3      0.00%    100.00% # Writes before turning the bus around for reads
system.mem_ctrls.wrPerTurnAround::21                1      0.00%    100.00% # Writes before turning the bus around for reads
system.mem_ctrls.wrPerTurnAround::total         73213                       # Writes before turning the bus around for reads
system.mem_ctrls.bytesReadDRAM              140887296                       # Total number of bytes read from DRAM
system.mem_ctrls.bytesReadWrQ                    7936                       # Total number of bytes read from write queue
system.mem_ctrls.bytesWritten                75404544                       # Total number of bytes written to DRAM
system.mem_ctrls.bytesReadSys               140895232                       # Total read bytes from the system interface side
system.mem_ctrls.bytesWrittenSys             75406528                       # Total written bytes from the system interface side
system.mem_ctrls.avgRdBW                       370.60                       # Average DRAM read bandwidth in MiByte/s
system.mem_ctrls.avgWrBW                       198.35                       # Average achieved write bandwidth in MiByte/s
system.mem_ctrls.avgRdBWSys                    370.62                       # Average system read bandwidth in MiByte/s
system.mem_ctrls.avgWrBWSys                    198.35                       # Average system write bandwidth in MiByte/s
system.mem_ctrls.peakBW                      12800.00                       # Theoretical peak bandwidth in MiByte/s
system.mem_ctrls.busUtil                         4.44                       # Data bus utilization in percentage
system.mem_ctrls.busUtilRead                     2.90                       # Data bus utilization in percentage for reads
system.mem_ctrls.busUtilWrite                    1.55                       # Data bus utilization in percentage for writes
system.mem_ctrls.totGap                  380164480500                       # Total gap between requests
system.mem_ctrls.avgGap                     112484.18                       # Average gap between requests
system.mem_ctrls.masterReadBytes::.cpu.inst        33280                       # Per-master bytes read from memory
system.mem_ctrls.masterReadBytes::.cpu.data    140854016                       # Per-master bytes read from memory
system.mem_ctrls.masterWriteBytes::.writebacks     75404544                       # Per-master bytes write to memory
system.mem_ctrls.masterReadRate::.cpu.inst 87541.002835927357                       # Per-master bytes read from memory rate (Bytes/sec)
system.mem_ctrls.masterReadRate::.cpu.data 370507867.010449409485                       # Per-master bytes read from memory rate (Bytes/sec)
system.mem_ctrls.masterWriteRate::.writebacks 198347037.263996660709                       # Per-master bytes write to memory rate (Bytes/sec)
system.mem_ctrls.masterReadAccesses::.cpu.inst          520                       # Per-master read serviced memory accesses
system.mem_ctrls.masterReadAccesses::.cpu.data      2200968                       # Per-master read serviced memory accesses
system.mem_ctrls.masterWriteAccesses::.writebacks      1178227                       # Per-master write serviced memory accesses
system.mem_ctrls.masterReadTotalLat::.cpu.inst     13126000                       # Per-master read total memory access latency
system.mem_ctrls.masterReadTotalLat::.cpu.data  56494872250                       # Per-master read total memory access latency
system.mem_ctrls.masterWriteTotalLat::.writebacks 9209082789500                       # Per-master write total memory access latency
system.mem_ctrls.masterReadAvgLat::.cpu.inst     25242.31                       # Per-master read average memory access latency
system.mem_ctrls.masterReadAvgLat::.cpu.data     25668.19                       # Per-master read average memory access latency
system.mem_ctrls.masterWriteAvgLat::.writebacks   7816051.40                       # Per-master write average memory access latency
system.mem_ctrls.pageHitRate                    88.24                       # Row buffer hit rate, read and write combined
system.mem_ctrls.rank1.actEnergy           1420153140                       # Energy for activate commands per rank (pJ)
system.mem_ctrls.rank1.preEnergy            754825500                       # Energy for precharge commands per rank (pJ)
system.mem_ctrls.rank1.readEnergy          7853050380                       # Energy for read commands per rank (pJ)
system.mem_ctrls.rank1.writeEnergy         3074047560                       # Energy for write commands per rank (pJ)
system.mem_ctrls.rank1.refreshEnergy     30009798000.000004                       # Energy for refresh commands per rank (pJ)
system.mem_ctrls.rank1.actBackEnergy     108950860770                       # Energy for active background per rank (pJ)
system.mem_ctrls.rank1.preBackEnergy      54235155840                       # Energy for precharge background per rank (pJ)
system.mem_ctrls.rank1.actPowerDownEnergy            0                       # Energy for active power-down per rank (pJ)
system.mem_ctrls.rank1.prePowerDownEnergy            0                       # Energy for precharge power-down per rank (pJ)
system.mem_ctrls.rank1.selfRefreshEnergy            0                       # Energy for self refresh per rank (pJ)
system.mem_ctrls.rank1.totalEnergy       206297891190                       # Total energy per rank (pJ)
system.mem_ctrls.rank1.averagePower        542.653975                       # Core power per rank (mW)
system.mem_ctrls.rank1.totalIdleTime                0                       # Total Idle time Per DRAM Rank
system.mem_ctrls.rank1.memoryStateTime::IDLE 139582620750                       # Time in different power states
system.mem_ctrls.rank1.memoryStateTime::REF  12694500000                       # Time in different power states
system.mem_ctrls.rank1.memoryStateTime::SREF            0                       # Time in different power states
system.mem_ctrls.rank1.memoryStateTime::PRE_PDN            0                       # Time in different power states
system.mem_ctrls.rank1.memoryStateTime::ACT 227887589750                       # Time in different power states
system.mem_ctrls.rank1.memoryStateTime::ACT_PDN            0                       # Time in different power states
system.mem_ctrls.rank0.actEnergy           1416982980                       # Energy for activate commands per rank (pJ)
system.mem_ctrls.rank0.preEnergy            753144315                       # Energy for precharge commands per rank (pJ)
system.mem_ctrls.rank0.readEnergy          7864688580                       # Energy for read commands per rank (pJ)
system.mem_ctrls.rank0.writeEnergy         3076135560                       # Energy for write commands per rank (pJ)
system.mem_ctrls.rank0.refreshEnergy     30009798000.000004                       # Energy for refresh commands per rank (pJ)
system.mem_ctrls.rank0.actBackEnergy     110491162650                       # Energy for active background per rank (pJ)
system.mem_ctrls.rank0.preBackEnergy      52938059520                       # Energy for precharge background per rank (pJ)
system.mem_ctrls.rank0.actPowerDownEnergy            0                       # Energy for active power-down per rank (pJ)
system.mem_ctrls.rank0.prePowerDownEnergy            0                       # Energy for precharge power-down per rank (pJ)
system.mem_ctrls.rank0.selfRefreshEnergy            0                       # Energy for self refresh per rank (pJ)
system.mem_ctrls.rank0.totalEnergy       206549971605                       # Total energy per rank (pJ)
system.mem_ctrls.rank0.averagePower        543.317057                       # Core power per rank (mW)
system.mem_ctrls.rank0.totalIdleTime                0                       # Total Idle time Per DRAM Rank
system.mem_ctrls.rank0.memoryStateTime::IDLE 136194321000                       # Time in different power states
system.mem_ctrls.rank0.memoryStateTime::REF  12694500000                       # Time in different power states
system.mem_ctrls.rank0.memoryStateTime::SREF            0                       # Time in different power states
system.mem_ctrls.rank0.memoryStateTime::PRE_PDN            0                       # Time in different power states
system.mem_ctrls.rank0.memoryStateTime::ACT 231275889500                       # Time in different power states
system.mem_ctrls.rank0.memoryStateTime::ACT_PDN            0                       # Time in different power states
system.mem_ctrls.power_state.pwrStateResidencyTicks::UNDEFINED 380164710500                       # Cumulative time (in ticks) in various power states
system.cpu_clk_domain.clock                       500                       # Clock period in ticks
system.cpu.icache.demand_hits::.cpu.inst    146029999                       # number of demand (read+write) hits
system.cpu.icache.demand_hits::total        146029999                       # number of demand (read+write) hits
system.cpu.icache.overall_hits::.cpu.inst    146029999                       # number of overall hits
system.cpu.icache.overall_hits::total       146029999                       # number of overall hits
system.cpu.icache.demand_misses::.cpu.inst          521                       # number of demand (read+write) misses
system.cpu.icache.demand_misses::total            521                       # number of demand (read+write) misses
system.cpu.icache.overall_misses::.cpu.inst          521                       # number of overall misses
system.cpu.icache.overall_misses::total           521                       # number of overall misses
system.cpu.icache.demand_miss_latency::.cpu.inst     40866500                       # number of demand (read+write) miss cycles
system.cpu.icache.demand_miss_latency::total     40866500                       # number of demand (read+write) miss cycles
system.cpu.icache.overall_miss_latency::.cpu.inst     40866500                       # number of overall miss cycles
system.cpu.icache.overall_miss_latency::total     40866500                       # number of overall miss cycles
system.cpu.icache.demand_accesses::.cpu.inst    146030520                       # number of demand (read+write) accesses
system.cpu.icache.demand_accesses::total    146030520                       # number of demand (read+write) accesses
system.cpu.icache.overall_accesses::.cpu.inst    146030520                       # number of overall (read+write) accesses
system.cpu.icache.overall_accesses::total    146030520                       # number of overall (read+write) accesses
system.cpu.icache.demand_miss_rate::.cpu.inst     0.000004                       # miss rate for demand accesses
system.cpu.icache.demand_miss_rate::total     0.000004                       # miss rate for demand accesses
system.cpu.icache.overall_miss_rate::.cpu.inst     0.000004                       # miss rate for overall accesses
system.cpu.icache.overall_miss_rate::total     0.000004                       # miss rate for overall accesses
system.cpu.icache.demand_avg_miss_latency::.cpu.inst 78438.579655                       # average overall miss latency
system.cpu.icache.demand_avg_miss_latency::total 78438.579655                       # average overall miss latency
system.cpu.icache.overall_avg_miss_latency::.cpu.inst 78438.579655                       # average overall miss latency
system.cpu.icache.overall_avg_miss_latency::total 78438.579655                       # average overall miss latency
system.cpu.icache.blocked_cycles::no_mshrs            0                       # number of cycles access was blocked
system.cpu.icache.blocked_cycles::no_targets            0                       # number of cycles access was blocked
[...]
system.cpu.icache.tags.occ_task_id_blocks::1024          519                       # Occupied blocks per task id
system.cpu.icache.tags.age_task_id_blocks_1024::4          519                       # Occupied blocks per task id
system.cpu.icache.tags.occ_task_id_percent::1024     0.253418                       # Percentage of cache occupancy per task id
system.cpu.icache.tags.tag_accesses         584122601                       # Number of tag accesses
system.cpu.icache.tags.data_accesses        584122601                       # Number of data accesses
system.cpu.icache.tags.power_state.pwrStateResidencyTicks::UNDEFINED 380164710500                       # Cumulative time (in ticks) in various power states
system.cpu.dtb.walker.power_state.pwrStateResidencyTicks::UNDEFINED 380164710500                       # Cumulative time (in ticks) in various power states
system.cpu.interrupts.clk_domain.clock           8000                       # Clock period in ticks
system.cpu.itb_walker_cache.blocked_cycles::no_mshrs            0                       # number of cycles access was blocked
system.cpu.itb_walker_cache.blocked_cycles::no_targets            0                       # number of cycles access was blocked
system.cpu.itb_walker_cache.blocked::no_mshrs            0                       # number of cycles access was blocked
system.cpu.itb_walker_cache.blocked::no_targets            0                       # number of cycles access was blocked
system.cpu.itb_walker_cache.avg_blocked_cycles::no_mshrs          nan                       # average number of cycles each access was blocked
system.cpu.itb_walker_cache.avg_blocked_cycles::no_targets          nan                       # average number of cycles each access was blocked
system.cpu.itb_walker_cache.replacements            0                       # number of replacements
system.cpu.itb_walker_cache.power_state.pwrStateResidencyTicks::UNDEFINED 380164710500                       # Cumulative time (in ticks) in various power states
system.cpu.itb_walker_cache.tags.tagsinuse            0                       # Cycle average of tags in use
system.cpu.itb_walker_cache.tags.total_refs            0                       # Total number of references to valid blocks.
system.cpu.itb_walker_cache.tags.sampled_refs            0                       # Sample count of references to valid blocks.
system.cpu.itb_walker_cache.tags.avg_refs          nan                       # Average number of references to valid blocks.
system.cpu.itb_walker_cache.tags.warmup_cycle            0                       # Cycle when the warmup percentage was hit.
system.cpu.itb_walker_cache.tags.tag_accesses            0                       # Number of tag accesses
system.cpu.itb_walker_cache.tags.data_accesses            0                       # Number of data accesses
system.cpu.itb_walker_cache.tags.power_state.pwrStateResidencyTicks::UNDEFINED 380164710500                       # Cumulative time (in ticks) in various power states
system.cpu.itb.walker.power_state.pwrStateResidencyTicks::UNDEFINED 380164710500                       # Cumulative time (in ticks) in various power states
system.cpu.dtb_walker_cache.blocked_cycles::no_mshrs            0                       # number of cycles access was blocked
system.cpu.dtb_walker_cache.blocked_cycles::no_targets            0                       # number of cycles access was blocked
system.cpu.dtb_walker_cache.blocked::no_mshrs            0                       # number of cycles access was blocked
system.cpu.dtb_walker_cache.blocked::no_targets            0                       # number of cycles access was blocked
system.cpu.dtb_walker_cache.avg_blocked_cycles::no_mshrs          nan                       # average number of cycles each access was blocked
system.cpu.dtb_walker_cache.avg_blocked_cycles::no_targets          nan                       # average number of cycles each access was blocked
system.cpu.dtb_walker_cache.replacements            0                       # number of replacements
system.cpu.dtb_walker_cache.power_state.pwrStateResidencyTicks::UNDEFINED 380164710500                       # Cumulative time (in ticks) in various power states
system.cpu.dtb_walker_cache.tags.tagsinuse            0                       # Cycle average of tags in use
system.cpu.dtb_walker_cache.tags.total_refs            0                       # Total number of references to valid blocks.
system.cpu.dtb_walker_cache.tags.sampled_refs            0                       # Sample count of references to valid blocks.
system.cpu.dtb_walker_cache.tags.avg_refs          nan                       # Average number of references to valid blocks.
system.cpu.dtb_walker_cache.tags.warmup_cycle            0                       # Cycle when the warmup percentage was hit.
system.cpu.dtb_walker_cache.tags.tag_accesses            0                       # Number of tag accesses
system.cpu.dtb_walker_cache.tags.data_accesses            0                       # Number of data accesses
system.cpu.dtb_walker_cache.tags.power_state.pwrStateResidencyTicks::UNDEFINED 380164710500                       # Cumulative time (in ticks) in various power states
system.cpu.dcache.demand_hits::.cpu.data     62609234                       # number of demand (read+write) hits
system.cpu.dcache.demand_hits::total         62609234                       # number of demand (read+write) hits
system.cpu.dcache.overall_hits::.cpu.data     62609234                       # number of overall hits
system.cpu.dcache.overall_hits::total        62609234                       # number of overall hits
system.cpu.dcache.demand_misses::.cpu.data      2344101                       # number of demand (read+write) misses
system.cpu.dcache.demand_misses::total        2344101                       # number of demand (read+write) misses
system.cpu.dcache.overall_misses::.cpu.data      2409637                       # number of overall misses
system.cpu.dcache.overall_misses::total       2409637                       # number of overall misses
system.cpu.dcache.demand_miss_latency::.cpu.data 170844398500                       # number of demand (read+write) miss cycles
system.cpu.dcache.demand_miss_latency::total 170844398500                       # number of demand (read+write) miss cycles
system.cpu.dcache.overall_miss_latency::.cpu.data 170844398500                       # number of overall miss cycles
system.cpu.dcache.overall_miss_latency::total 170844398500                       # number of overall miss cycles
system.cpu.dcache.demand_accesses::.cpu.data     64953335                       # number of demand (read+write) accesses
system.cpu.dcache.demand_accesses::total     64953335                       # number of demand (read+write) accesses
system.cpu.dcache.overall_accesses::.cpu.data     65018871                       # number of overall (read+write) accesses
system.cpu.dcache.overall_accesses::total     65018871                       # number of overall (read+write) accesses
system.cpu.dcache.demand_miss_rate::.cpu.data     0.036089                       # miss rate for demand accesses
system.cpu.dcache.demand_miss_rate::total     0.036089                       # miss rate for demand accesses
system.cpu.dcache.overall_miss_rate::.cpu.data     0.037061                       # miss rate for overall accesses
system.cpu.dcache.overall_miss_rate::total     0.037061                       # miss rate for overall accesses
system.cpu.dcache.demand_avg_miss_latency::.cpu.data 72882.695114                       # average overall miss latency
system.cpu.dcache.demand_avg_miss_latency::total 72882.695114                       # average overall miss latency
system.cpu.dcache.overall_avg_miss_latency::.cpu.data 70900.471108                       # average overall miss latency
system.cpu.dcache.overall_avg_miss_latency::total 70900.471108                       # average overall miss latency
system.cpu.dcache.blocked_cycles::no_mshrs      1210923                       # number of cycles access was blocked
system.cpu.dcache.blocked_cycles::no_targets            0                       # number of cycles access was blocked
system.cpu.dcache.blocked::no_mshrs             21035                       # number of cycles access was blocked
system.cpu.dcache.blocked::no_targets               0                       # number of cycles access was blocked
system.cpu.dcache.avg_blocked_cycles::no_mshrs    57.567055                       # average number of cycles each access was blocked
system.cpu.dcache.avg_blocked_cycles::no_targets          nan                       # average number of cycles each access was blocked
system.cpu.dcache.writebacks::.writebacks      1399059                       # number of writebacks
system.cpu.dcache.writebacks::total           1399059                       # number of writebacks
system.cpu.dcache.demand_mshr_misses::.cpu.data      2344101                       # number of demand (read+write) MSHR misses
system.cpu.dcache.demand_mshr_misses::total      2344101                       # number of demand (read+write) MSHR misses
system.cpu.dcache.overall_mshr_misses::.cpu.data      2409637                       # number of overall MSHR misses
system.cpu.dcache.overall_mshr_misses::total      2409637                       # number of overall MSHR misses
system.cpu.dcache.demand_mshr_miss_latency::.cpu.data 168500297500                       # number of demand (read+write) MSHR miss cycles
system.cpu.dcache.demand_mshr_miss_latency::total 168500297500                       # number of demand (read+write) MSHR miss cycles
system.cpu.dcache.overall_mshr_miss_latency::.cpu.data 174102689881                       # number of overall MSHR miss cycles
system.cpu.dcache.overall_mshr_miss_latency::total 174102689881                       # number of overall MSHR miss cycles
system.cpu.dcache.demand_mshr_miss_rate::.cpu.data     0.036089                       # mshr miss rate for demand accesses
system.cpu.dcache.demand_mshr_miss_rate::total     0.036089                       # mshr miss rate for demand accesses
system.cpu.dcache.overall_mshr_miss_rate::.cpu.data     0.037061                       # mshr miss rate for overall accesses
system.cpu.dcache.overall_mshr_miss_rate::total     0.037061                       # mshr miss rate for overall accesses
system.cpu.dcache.demand_avg_mshr_miss_latency::.cpu.data 71882.695114                       # average overall mshr miss latency
system.cpu.dcache.demand_avg_mshr_miss_latency::total 71882.695114                       # average overall mshr miss latency
system.cpu.dcache.overall_avg_mshr_miss_latency::.cpu.data 72252.662904                       # average overall mshr miss latency
system.cpu.dcache.overall_avg_mshr_miss_latency::total 72252.662904                       # average overall mshr miss latency
system.cpu.dcache.replacements                2407589                       # number of replacements
system.cpu.dcache.ReadReq_hits::.cpu.data     46197437                       # number of ReadReq hits
system.cpu.dcache.ReadReq_hits::total        46197437                       # number of ReadReq hits
system.cpu.dcache.ReadReq_misses::.cpu.data      1111275                       # number of ReadReq misses
system.cpu.dcache.ReadReq_misses::total       1111275                       # number of ReadReq misses
system.cpu.dcache.ReadReq_miss_latency::.cpu.data  79828403000                       # number of ReadReq miss cycles
system.cpu.dcache.ReadReq_miss_latency::total  79828403000                       # number of ReadReq miss cycles
system.cpu.dcache.ReadReq_accesses::.cpu.data     47308712                       # number of ReadReq accesses(hits+misses)
system.cpu.dcache.ReadReq_accesses::total     47308712                       # number of ReadReq accesses(hits+misses)
system.cpu.dcache.ReadReq_miss_rate::.cpu.data     0.023490                       # miss rate for ReadReq accesses
system.cpu.dcache.ReadReq_miss_rate::total     0.023490                       # miss rate for ReadReq accesses
system.cpu.dcache.ReadReq_avg_miss_latency::.cpu.data 71834.967042                       # average ReadReq miss latency
system.cpu.dcache.ReadReq_avg_miss_latency::total 71834.967042                       # average ReadReq miss latency
system.cpu.dcache.ReadReq_mshr_misses::.cpu.data      1111275                       # number of ReadReq MSHR misses
system.cpu.dcache.ReadReq_mshr_misses::total      1111275                       # number of ReadReq MSHR misses
system.cpu.dcache.ReadReq_mshr_miss_latency::.cpu.data  78717128000                       # number of ReadReq MSHR miss cycles
system.cpu.dcache.ReadReq_mshr_miss_latency::total  78717128000                       # number of ReadReq MSHR miss cycles
system.cpu.dcache.ReadReq_mshr_miss_rate::.cpu.data     0.023490                       # mshr miss rate for ReadReq accesses
system.cpu.dcache.ReadReq_mshr_miss_rate::total     0.023490                       # mshr miss rate for ReadReq accesses
system.cpu.dcache.ReadReq_avg_mshr_miss_latency::.cpu.data 70834.967042                       # average ReadReq mshr miss latency
system.cpu.dcache.ReadReq_avg_mshr_miss_latency::total 70834.967042                       # average ReadReq mshr miss latency
system.cpu.dcache.WriteReq_hits::.cpu.data     16411797                       # number of WriteReq hits
system.cpu.dcache.WriteReq_hits::total       16411797                       # number of WriteReq hits
system.cpu.dcache.WriteReq_misses::.cpu.data      1232826                       # number of WriteReq misses
system.cpu.dcache.WriteReq_misses::total      1232826                       # number of WriteReq misses
system.cpu.dcache.WriteReq_miss_latency::.cpu.data  91015995500                       # number of WriteReq miss cycles
system.cpu.dcache.WriteReq_miss_latency::total  91015995500                       # number of WriteReq miss cycles
system.cpu.dcache.WriteReq_accesses::.cpu.data     17644623                       # number of WriteReq accesses(hits+misses)
system.cpu.dcache.WriteReq_accesses::total     17644623                       # number of WriteReq accesses(hits+misses)
system.cpu.dcache.WriteReq_miss_rate::.cpu.data     0.069870                       # miss rate for WriteReq accesses
system.cpu.dcache.WriteReq_miss_rate::total     0.069870                       # miss rate for WriteReq accesses
system.cpu.dcache.WriteReq_avg_miss_latency::.cpu.data 73827.121995                       # average WriteReq miss latency
system.cpu.dcache.WriteReq_avg_miss_latency::total 73827.121995                       # average WriteReq miss latency
system.cpu.dcache.WriteReq_mshr_misses::.cpu.data      1232826                       # number of WriteReq MSHR misses
system.cpu.dcache.WriteReq_mshr_misses::total      1232826                       # number of WriteReq MSHR misses
system.cpu.dcache.WriteReq_mshr_miss_latency::.cpu.data  89783169500                       # number of WriteReq MSHR miss cycles
system.cpu.dcache.WriteReq_mshr_miss_latency::total  89783169500                       # number of WriteReq MSHR miss cycles
system.cpu.dcache.WriteReq_mshr_miss_rate::.cpu.data     0.069870                       # mshr miss rate for WriteReq accesses
system.cpu.dcache.WriteReq_mshr_miss_rate::total     0.069870                       # mshr miss rate for WriteReq accesses
system.cpu.dcache.WriteReq_avg_mshr_miss_latency::.cpu.data 72827.121995                       # average WriteReq mshr miss latency
system.cpu.dcache.WriteReq_avg_mshr_miss_latency::total 72827.121995                       # average WriteReq mshr miss latency
system.cpu.dcache.SoftPFReq_misses::.cpu.data        65536                       # number of SoftPFReq misses
system.cpu.dcache.SoftPFReq_misses::total        65536                       # number of SoftPFReq misses
system.cpu.dcache.SoftPFReq_accesses::.cpu.data        65536                       # number of SoftPFReq accesses(hits+misses)
system.cpu.dcache.SoftPFReq_accesses::total        65536                       # number of SoftPFReq accesses(hits+misses)
system.cpu.dcache.SoftPFReq_miss_rate::.cpu.data            1                       # miss rate for SoftPFReq accesses
system.cpu.dcache.SoftPFReq_miss_rate::total            1                       # miss rate for SoftPFReq accesses
system.cpu.dcache.SoftPFReq_mshr_misses::.cpu.data        65536                       # number of SoftPFReq MSHR misses
system.cpu.dcache.SoftPFReq_mshr_misses::total        65536                       # number of SoftPFReq MSHR misses
system.cpu.dcache.SoftPFReq_mshr_miss_latency::.cpu.data   5602392381                       # number of SoftPFReq MSHR miss cycles
system.cpu.dcache.SoftPFReq_mshr_miss_latency::total   5602392381                       # number of SoftPFReq MSHR miss cycles
system.cpu.dcache.SoftPFReq_mshr_miss_rate::.cpu.data            1                       # mshr miss rate for SoftPFReq accesses
system.cpu.dcache.SoftPFReq_mshr_miss_rate::total            1                       # mshr miss rate for SoftPFReq accesses
system.cpu.dcache.SoftPFReq_avg_mshr_miss_latency::.cpu.data 85485.723587                       # average SoftPFReq mshr miss latency
system.cpu.dcache.SoftPFReq_avg_mshr_miss_latency::total 85485.723587                       # average SoftPFReq mshr miss latency
system.cpu.dcache.power_state.pwrStateResidencyTicks::UNDEFINED 380164710500                       # Cumulative time (in ticks) in various power states
system.cpu.dcache.tags.tagsinuse          1945.301984                       # Cycle average of tags in use
system.cpu.dcache.tags.total_refs            65018871                       # Total number of references to valid blocks.
system.cpu.dcache.tags.sampled_refs           2409637                       # Sample count of references to valid blocks.
system.cpu.dcache.tags.avg_refs             26.982849                       # Average number of references to valid blocks.
system.cpu.dcache.tags.warmup_cycle            189500                       # Cycle when the warmup percentage was hit.
system.cpu.dcache.tags.occ_blocks::.cpu.data  1945.301984                       # Average occupied blocks per requestor
system.cpu.dcache.tags.occ_percent::.cpu.data     0.949854                       # Average percentage of cache occupancy
system.cpu.dcache.tags.occ_percent::total     0.949854                       # Average percentage of cache occupancy
system.cpu.dcache.tags.occ_task_id_blocks::1024         2048                       # Occupied blocks per task id
system.cpu.dcache.tags.age_task_id_blocks_1024::0           57                       # Occupied blocks per task id
system.cpu.dcache.tags.age_task_id_blocks_1024::1          349                       # Occupied blocks per task id
system.cpu.dcache.tags.age_task_id_blocks_1024::2         1364                       # Occupied blocks per task id
system.cpu.dcache.tags.age_task_id_blocks_1024::3          272                       # Occupied blocks per task id
system.cpu.dcache.tags.age_task_id_blocks_1024::4            6                       # Occupied blocks per task id
system.cpu.dcache.tags.occ_task_id_percent::1024            1                       # Percentage of cache occupancy per task id
system.cpu.dcache.tags.tag_accesses         262485121                       # Number of tag accesses
system.cpu.dcache.tags.data_accesses        262485121                       # Number of data accesses
system.cpu.dcache.tags.power_state.pwrStateResidencyTicks::UNDEFINED 380164710500                       # Cumulative time (in ticks) in various power states
system.cpu.power_state.numTransitions               1                       # Number of power state transitions
system.cpu.power_state.pwrStateResidencyTicks::ON 380164710500                       # Cumulative time (in ticks) in various power states

---------- End Simulation Statistics   ----------
