
---------- Begin Simulation Statistics ----------
final_tick                               191058774500                       # Number of ticks from beginning of simulation (restored from checkpoints and never reset)
host_inst_rate                                 397930                       # Simulator instruction rate (inst/s)
host_mem_usage                                 841080                       # Number of bytes of host memory used
host_op_rate                                   515770                       # Simulator op (including micro ops) rate (op/s)
host_seconds                                   251.30                       # Real time elapsed on the host
host_tick_rate                              760278579                       # Simulator tick rate (ticks/s)
sim_freq                                 1000000000000                       # Frequency of simulated ticks
sim_insts                                   100000000                       # Number of instructions simulated
sim_ops                                     129613377                       # Number of ops (including micro ops) simulated
sim_seconds                                  0.191059                       # Number of seconds simulated
sim_ticks                                191058774500                       # Number of ticks simulated
system.cpu.Branches                           5617807                       # Number of branches fetched
system.cpu.committedInsts                   100000000                       # Number of instructions committed
system.cpu.committedOps                     129613377                       # Number of ops (including micro ops) committed
system.cpu.dtb.rdAccesses                    43805359                       # TLB accesses on read requests
system.cpu.dtb.rdMisses                           210                       # TLB misses on read requests
system.cpu.dtb.wrAccesses                     7218210                       # TLB accesses on write requests
system.cpu.dtb.wrMisses                           154                       # TLB misses on write requests
system.cpu.idle_fraction                            0                       # Percentage of idle cycles
system.cpu.itb.rdAccesses                           0                       # TLB accesses on read requests
system.cpu.itb.rdMisses                             0                       # TLB misses on read requests
system.cpu.itb.wrAccesses                   139165701                       # TLB accesses on write requests
system.cpu.itb.wrMisses                            95                       # TLB misses on write requests
system.cpu.not_idle_fraction                        1                       # Percentage of non-idle cycles
system.cpu.numCycles                        382117549                       # number of cpu cycles simulated
system.cpu.numWorkItemsCompleted                    0                       # number of work items this cpu completed
system.cpu.numWorkItemsStarted                      0                       # number of work items this cpu started
system.cpu.num_busy_cycles                  382117549                       # Number of busy cycles
system.cpu.num_cc_register_reads             37963035                       # number of times the CC registers were read
system.cpu.num_cc_register_writes            52207152                       # number of times the CC registers were written
system.cpu.num_conditional_control_insts      5137538                       # number of instructions that are conditional controls
system.cpu.num_fp_alu_accesses                5793491                       # Number of float alu accesses
system.cpu.num_fp_insts                       5793491                       # number of float instructions
system.cpu.num_fp_register_reads              4659032                       # number of times the floating registers were read
system.cpu.num_fp_register_writes             4971622                       # number of times the floating registers were written
system.cpu.num_func_calls                      316177                       # number of times a function call or return occured
system.cpu.num_idle_cycles                          0                       # Number of idle cycles
system.cpu.num_int_alu_accesses             125549943                       # Number of integer alu accesses
system.cpu.num_int_insts                    125549943                       # number of integer instructions
system.cpu.num_int_register_reads           294172459                       # number of times the integer registers were read
system.cpu.num_int_register_writes          114123336                       # number of times the integer registers were written
system.cpu.num_load_insts                    43804861                       # Number of load instructions
system.cpu.num_mem_refs                      51023024                       # number of memory refs
system.cpu.num_store_insts                    7218163                       # Number of store instructions
system.cpu.num_vec_alu_accesses                     0                       # Number of vector alu accesses
system.cpu.num_vec_insts                            0                       # number of vector instructions
system.cpu.num_vec_register_reads                   0                       # number of times the vector registers were read
system.cpu.num_vec_register_writes                  0                       # number of times the vector registers were written
system.cpu.op_class::No_OpClass                349946      0.27%      0.27% # Class of executed instruction
system.cpu.op_class::IntAlu                  73091847     56.39%     56.66% # Class of executed instruction
system.cpu.op_class::IntMult                   134167      0.10%     56.77% # Class of executed instruction
system.cpu.op_class::IntDiv                   1267698      0.98%     57.74% # Class of executed instruction
system.cpu.op_class::FloatAdd                 2000005      1.54%     59.29% # Class of executed instruction
system.cpu.op_class::FloatCmp                       0      0.00%     59.29% # Class of executed instruction
system.cpu.op_class::FloatCvt                       0      0.00%     59.29% # Class of executed instruction
system.cpu.op_class::FloatMult                      0      0.00%     59.29% # Class of executed instruction
system.cpu.op_class::FloatMultAcc                   0      0.00%     59.29% # Class of executed instruction
system.cpu.op_class::FloatDiv                       0      0.00%     59.29% # Class of executed instruction
system.cpu.op_class::FloatMisc                      0      0.00%     59.29% # Class of executed instruction
system.cpu.op_class::FloatSqrt                      0      0.00%     59.29% # Class of executed instruction
system.cpu.op_class::SimdAdd                      394      0.00%     59.29% # Class of executed instruction
system.cpu.op_class::SimdAddAcc                     0      0.00%     59.29% # Class of executed instruction
system.cpu.op_class::SimdAlu                   162706      0.13%     59.41% # Class of executed instruction
system.cpu.op_class::SimdCmp                      186      0.00%     59.41% # Class of executed instruction
system.cpu.op_class::SimdCvt                   180568      0.14%     59.55% # Class of executed instruction
system.cpu.op_class::SimdMisc                  401125      0.31%     59.86% # Class of executed instruction
system.cpu.op_class::SimdMult                       0      0.00%     59.86% # Class of executed instruction
system.cpu.op_class::SimdMultAcc                    0      0.00%     59.86% # Class of executed instruction
system.cpu.op_class::SimdShift                     96      0.00%     59.86% # Class of executed instruction
system.cpu.op_class::SimdShiftAcc                   0      0.00%     59.86% # Class of executed instruction
system.cpu.op_class::SimdDiv                        0      0.00%     59.86% # Class of executed instruction
system.cpu.op_class::SimdSqrt                       0      0.00%     59.86% # Class of executed instruction
system.cpu.op_class::SimdFloatAdd              339946      0.26%     60.12% # Class of executed instruction
system.cpu.op_class::SimdFloatAlu                   0      0.00%     60.12% # Class of executed instruction
system.cpu.op_class::SimdFloatCmp                   0      0.00%     60.12% # Class of executed instruction
system.cpu.op_class::SimdFloatCvt              546001      0.42%     60.55% # Class of executed instruction
system.cpu.op_class::SimdFloatDiv               63457      0.05%     60.59% # Class of executed instruction
system.cpu.op_class::SimdFloatMisc                  0      0.00%     60.59% # Class of executed instruction
system.cpu.op_class::SimdFloatMult              52428      0.04%     60.63% # Class of executed instruction
system.cpu.op_class::SimdFloatMultAcc               0      0.00%     60.63% # Class of executed instruction
system.cpu.op_class::SimdFloatSqrt                  0      0.00%     60.63% # Class of executed instruction
system.cpu.op_class::SimdReduceAdd                  0      0.00%     60.63% # Class of executed instruction
system.cpu.op_class::SimdReduceAlu                  0      0.00%     60.63% # Class of executed instruction
system.cpu.op_class::SimdReduceCmp                  0      0.00%     60.63% # Class of executed instruction
system.cpu.op_class::SimdFloatReduceAdd             0      0.00%     60.63% # Class of executed instruction
system.cpu.op_class::SimdFloatReduceCmp             0      0.00%     60.63% # Class of executed instruction
system.cpu.op_class::SimdAes                        0      0.00%     60.63% # Class of executed instruction
system.cpu.op_class::SimdAesMix                     0      0.00%     60.63% # Class of executed instruction
system.cpu.op_class::SimdSha1Hash                   0      0.00%     60.63% # Class of executed instruction
system.cpu.op_class::SimdSha1Hash2                  0      0.00%     60.63% # Class of executed instruction
system.cpu.op_class::SimdSha256Hash                 0      0.00%     60.63% # Class of executed instruction
system.cpu.op_class::SimdSha256Hash2                0      0.00%     60.63% # Class of executed instruction
system.cpu.op_class::SimdShaSigma2                  0      0.00%     60.63% # Class of executed instruction
system.cpu.op_class::SimdShaSigma3                  0      0.00%     60.63% # Class of executed instruction
system.cpu.op_class::SimdPredAlu                    0      0.00%     60.63% # Class of executed instruction
system.cpu.op_class::MemRead                 42320670     32.65%     93.29% # Class of executed instruction
system.cpu.op_class::MemWrite                 6838627      5.28%     98.56% # Class of executed instruction
system.cpu.op_class::FloatMemRead             1484191      1.15%     99.71% # Class of executed instruction
system.cpu.op_class::FloatMemWrite             379536      0.29%    100.00% # Class of executed instruction
system.cpu.op_class::IprAccess                      0      0.00%    100.00% # Class of executed instruction
system.cpu.op_class::InstPrefetch                   0      0.00%    100.00% # Class of executed instruction
system.cpu.op_class::total                  129613594                       # Class of executed instruction
system.cpu.workload.numSyscalls                    34                       # Number of system calls
system.membus.snoop_filter.hit_multi_requests            0                       # Number of requests hitting in the snoop filter with multiple (>1) holders of the requested data.
system.membus.snoop_filter.hit_multi_snoops            0                       # Number of snoops hitting in the snoop filter with multiple (>1) holders of the requested data.
system.membus.snoop_filter.hit_single_requests           69                       # Number of requests hitting in the snoop filter with a single holder of the requested data.
system.membus.snoop_filter.hit_single_snoops            0                       # Number of snoops hitting in the snoop filter with a single holder of the requested data.
system.membus.snoop_filter.tot_requests          6402                       # Total number of requests made to the snoop filter.
system.membus.snoop_filter.tot_snoops               0                       # Total number of snoops made to the snoop filter.
system.tol2bus.snoop_filter.hit_multi_requests            1                       # Number of requests hitting in the snoop filter with multiple (>1) holders of the requested data.
system.tol2bus.snoop_filter.hit_multi_snoops            0                       # Number of snoops hitting in the snoop filter with multiple (>1) holders of the requested data.
system.tol2bus.snoop_filter.hit_single_requests        38133                       # Number of requests hitting in the snoop filter with a single holder of the requested data.
system.tol2bus.snoop_filter.hit_single_snoops          342                       # Number of snoops hitting in the snoop filter with a single holder of the requested data.
system.tol2bus.snoop_filter.tot_requests        79597                       # Total number of requests made to the snoop filter.
system.tol2bus.snoop_filter.tot_snoops            342                       # Total number of snoops made to the snoop filter.
system.membus.trans_dist::ReadResp               2732                       # Transaction distribution
system.membus.trans_dist::WritebackDirty            8                       # Transaction distribution
system.membus.trans_dist::CleanEvict               61                       # Transaction distribution
system.membus.trans_dist::ReadExReq              3601                       # Transaction distribution
system.membus.trans_dist::ReadExResp             3601                       # Transaction distribution
system.membus.trans_dist::ReadSharedReq          2732                       # Transaction distribution
system.membus.pkt_count_system.l2.mem_side::system.mem_ctrls.port        12735                       # Packet count per connected master and slave (bytes)
system.membus.pkt_count_system.l2.mem_side::total        12735                       # Packet count per connected master and slave (bytes)
system.membus.pkt_count::total                  12735                       # Packet count per connected master and slave (bytes)
system.membus.pkt_size_system.l2.mem_side::system.mem_ctrls.port       405824                       # Cumulative packet size per connected master and slave (bytes)
system.membus.pkt_size_system.l2.mem_side::total       405824                       # Cumulative packet size per connected master and slave (bytes)
system.membus.pkt_size::total                  405824                       # Cumulative packet size per connected master and slave (bytes)
system.membus.snoops                                0                       # Total snoops (count)
system.membus.snoopTraffic                          0                       # Total snoop traffic (bytes)
system.membus.snoop_fanout::samples              6333                       # Request fanout histogram
system.membus.snoop_fanout::mean                    0                       # Request fanout histogram
system.membus.snoop_fanout::stdev                   0                       # Request fanout histogram
system.membus.snoop_fanout::underflows              0      0.00%      0.00% # Request fanout histogram
system.membus.snoop_fanout::0                    6333    100.00%    100.00% # Request fanout histogram
system.membus.snoop_fanout::1                       0      0.00%    100.00% # Request fanout histogram
system.membus.snoop_fanout::overflows               0      0.00%    100.00% # Request fanout histogram
system.membus.snoop_fanout::min_value               0                       # Request fanout histogram
system.membus.snoop_fanout::max_value               0                       # Request fanout histogram
system.membus.snoop_fanout::total                6333                       # Request fanout histogram
system.membus.reqLayer2.occupancy             6709500                       # Layer occupancy (ticks)
system.membus.reqLayer2.utilization               0.0                       # Layer utilization (%)
system.membus.respLayer1.occupancy           33637000                       # Layer occupancy (ticks)
system.membus.respLayer1.utilization              0.0                       # Layer utilization (%)
system.membus.power_state.pwrStateResidencyTicks::UNDEFINED 191058774500                       # Cumulative time (in ticks) in various power states
system.tol2bus.trans_dist::ReadResp             14247                       # Transaction distribution
system.tol2bus.trans_dist::WritebackDirty        37047                       # Transaction distribution
system.tol2bus.trans_dist::WritebackClean           32                       # Transaction distribution
system.tol2bus.trans_dist::CleanEvict            1408                       # Transaction distribution
system.tol2bus.trans_dist::ReadExReq            27217                       # Transaction distribution
system.tol2bus.trans_dist::ReadExResp           27217                       # Transaction distribution
system.tol2bus.trans_dist::ReadCleanReq          1315                       # Transaction distribution
system.tol2bus.trans_dist::ReadSharedReq        12932                       # Transaction distribution
system.tol2bus.pkt_count_system.cpu.icache.mem_side::system.l2.cpu_side         2662                       # Packet count per connected master and slave (bytes)
system.tol2bus.pkt_count_system.cpu.dcache.mem_side::system.l2.cpu_side       118399                       # Packet count per connected master and slave (bytes)
system.tol2bus.pkt_count::total                121061                       # Packet count per connected master and slave (bytes)
system.tol2bus.pkt_size_system.cpu.icache.mem_side::system.l2.cpu_side        86208                       # Cumulative packet size per connected master and slave (bytes)
system.tol2bus.pkt_size_system.cpu.dcache.mem_side::system.l2.cpu_side      4940032                       # Cumulative packet size per connected master and slave (bytes)
system.tol2bus.pkt_size::total                5026240                       # Cumulative packet size per connected master and slave (bytes)
system.tol2bus.snoops                             354                       # Total snoops (count)
system.tol2bus.snoopTraffic                       512                       # Total snoop traffic (bytes)
system.tol2bus.snoop_fanout::samples            41818                       # Request fanout histogram
system.tol2bus.snoop_fanout::mean            0.008202                       # Request fanout histogram
system.tol2bus.snoop_fanout::stdev           0.090195                       # Request fanout histogram
system.tol2bus.snoop_fanout::underflows             0      0.00%      0.00% # Request fanout histogram
system.tol2bus.snoop_fanout::0                  41475     99.18%     99.18% # Request fanout histogram
system.tol2bus.snoop_fanout::1                    343      0.82%    100.00% # Request fanout histogram
system.tol2bus.snoop_fanout::2                      0      0.00%    100.00% # Request fanout histogram
system.tol2bus.snoop_fanout::3                      0      0.00%    100.00% # Request fanout histogram
system.tol2bus.snoop_fanout::4                      0      0.00%    100.00% # Request fanout histogram
system.tol2bus.snoop_fanout::overflows              0      0.00%    100.00% # Request fanout histogram
system.tol2bus.snoop_fanout::min_value              0                       # Request fanout histogram
system.tol2bus.snoop_fanout::max_value              1                       # Request fanout histogram
system.tol2bus.snoop_fanout::total              41818                       # Request fanout histogram
system.tol2bus.reqLayer0.occupancy           76869500                       # Layer occupancy (ticks)
system.tol2bus.reqLayer0.utilization              0.0                       # Layer utilization (%)
system.tol2bus.respLayer1.occupancy          60223500                       # Layer occupancy (ticks)
system.tol2bus.respLayer1.utilization             0.0                       # Layer utilization (%)
system.tol2bus.respLayer0.occupancy           1972500                       # Layer occupancy (ticks)
system.tol2bus.respLayer0.utilization             0.0                       # Layer utilization (%)
system.tol2bus.power_state.pwrStateResidencyTicks::UNDEFINED 191058774500                       # Cumulative time (in ticks) in various power states
system.voltage_domain.voltage                       1                       # Voltage in Volts
system.clk_domain.clock                          1000                       # Clock period in ticks
system.l2.demand_hits::.cpu.inst                    2                       # number of demand (read+write) hits
system.l2.demand_hits::.cpu.data                35129                       # number of demand (read+write) hits
system.l2.demand_hits::total                    35131                       # number of demand (read+write) hits
system.l2.overall_hits::.cpu.inst                   2                       # number of overall hits
system.l2.overall_hits::.cpu.data               35129                       # number of overall hits
system.l2.overall_hits::total                   35131                       # number of overall hits
system.l2.demand_misses::.cpu.inst               1313                       # number of demand (read+write) misses
system.l2.demand_misses::.cpu.data               5020                       # number of demand (read+write) misses
system.l2.demand_misses::total                   6333                       # number of demand (read+write) misses
system.l2.overall_misses::.cpu.inst              1313                       # number of overall misses
system.l2.overall_misses::.cpu.data              5020                       # number of overall misses
system.l2.overall_misses::total                  6333                       # number of overall misses
system.l2.demand_miss_latency::.cpu.inst    100953500                       # number of demand (read+write) miss cycles
system.l2.demand_miss_latency::.cpu.data    414953500                       # number of demand (read+write) miss cycles
system.l2.demand_miss_latency::total        515907000                       # number of demand (read+write) miss cycles
system.l2.overall_miss_latency::.cpu.inst    100953500                       # number of overall miss cycles
system.l2.overall_miss_latency::.cpu.data    414953500                       # number of overall miss cycles
system.l2.overall_miss_latency::total       515907000                       # number of overall miss cycles
system.l2.demand_accesses::.cpu.inst             1315                       # number of demand (read+write) accesses
system.l2.demand_accesses::.cpu.data            40149                       # number of demand (read+write) accesses
system.l2.demand_accesses::total                41464                       # number of demand (read+write) accesses
system.l2.overall_accesses::.cpu.inst            1315                       # number of overall (read+write) accesses
system.l2.overall_accesses::.cpu.data           40149                       # number of overall (read+write) accesses
system.l2.overall_accesses::total               41464                       # number of overall (read+write) accesses
system.l2.demand_miss_rate::.cpu.inst        0.998479                       # miss rate for demand accesses
system.l2.demand_miss_rate::.cpu.data        0.125034                       # miss rate for demand accesses
system.l2.demand_miss_rate::total            0.152735                       # miss rate for demand accesses
system.l2.overall_miss_rate::.cpu.inst       0.998479                       # miss rate for overall accesses
system.l2.overall_miss_rate::.cpu.data       0.125034                       # miss rate for overall accesses
system.l2.overall_miss_rate::total           0.152735                       # miss rate for overall accesses
system.l2.demand_avg_miss_latency::.cpu.inst 76887.661843                       # average overall miss latency
system.l2.demand_avg_miss_latency::.cpu.data 82660.059761                       # average overall miss latency
system.l2.demand_avg_miss_latency::total 81463.287541                       # average overall miss latency
system.l2.overall_avg_miss_latency::.cpu.inst 76887.661843                       # average overall miss latency
system.l2.overall_avg_miss_latency::.cpu.data 82660.059761                       # average overall miss latency
system.l2.overall_avg_miss_latency::total 81463.287541                       # average overall miss latency
system.l2.blocked_cycles::no_mshrs                  0                       # number of cycles access was blocked
system.l2.blocked_cycles::no_targets                0                       # number of cycles access was blocked
system.l2.blocked::no_mshrs                         0                       # number of cycles access was blocked
system.l2.blocked::no_targets                       0                       # number of cycles access was blocked
system.l2.avg_blocked_cycles::no_mshrs            nan                       # average number of cycles each access was blocked
system.l2.avg_blocked_cycles::no_targets          nan                       # average number of cycles each access was blocked
system.l2.writebacks::.writebacks                   8                       # number of writebacks
system.l2.writebacks::total                         8                       # number of writebacks
system.l2.demand_mshr_misses::.cpu.inst          1313                       # number of demand (read+write) MSHR misses
system.l2.demand_mshr_misses::.cpu.data          5020                       # number of demand (read+write) MSHR misses
system.l2.demand_mshr_misses::total              6333                       # number of demand (read+write) MSHR misses
system.l2.overall_mshr_misses::.cpu.inst         1313                       # number of overall MSHR misses
system.l2.overall_mshr_misses::.cpu.data         5020                       # number of overall MSHR misses
system.l2.overall_mshr_misses::total             6333                       # number of overall MSHR misses
system.l2.demand_mshr_miss_latency::.cpu.inst     87823500                       # number of demand (read+write) MSHR miss cycles
system.l2.demand_mshr_miss_latency::.cpu.data    364753500                       # number of demand (read+write) MSHR miss cycles
system.l2.demand_mshr_miss_latency::total    452577000                       # number of demand (read+write) MSHR miss cycles
system.l2.overall_mshr_miss_latency::.cpu.inst     87823500                       # number of overall MSHR miss cycles
system.l2.overall_mshr_miss_latency::.cpu.data    364753500                       # number of overall MSHR miss cycles
system.l2.overall_mshr_miss_latency::total    452577000                       # number of overall MSHR miss cycles
system.l2.demand_mshr_miss_rate::.cpu.inst     0.998479                       # mshr miss rate for demand accesses
system.l2.demand_mshr_miss_rate::.cpu.data     0.125034                       # mshr miss rate for demand accesses
system.l2.demand_mshr_miss_rate::total       0.152735                       # mshr miss rate for demand accesses
system.l2.overall_mshr_miss_rate::.cpu.inst     0.998479                       # mshr miss rate for overall accesses
system.l2.overall_mshr_miss_rate::.cpu.data     0.125034                       # mshr miss rate for overall accesses
system.l2.overall_mshr_miss_rate::total      0.152735                       # mshr miss rate for overall accesses
system.l2.demand_avg_mshr_miss_latency::.cpu.inst 66887.661843                       # average overall mshr miss latency
system.l2.demand_avg_mshr_miss_latency::.cpu.data 72660.059761                       # average overall mshr miss latency
system.l2.demand_avg_mshr_miss_latency::total 71463.287541                       # average overall mshr miss latency
system.l2.overall_avg_mshr_miss_latency::.cpu.inst 66887.661843                       # average overall mshr miss latency
system.l2.overall_avg_mshr_miss_latency::.cpu.data 72660.059761                       # average overall mshr miss latency
system.l2.overall_avg_mshr_miss_latency::total 71463.287541                       # average overall mshr miss latency
system.l2.replacements                            354                       # number of replacements
system.l2.WritebackDirty_hits::.writebacks        37039                       # number of WritebackDirty hits
system.l2.WritebackDirty_hits::total            37039                       # number of WritebackDirty hits
system.l2.WritebackDirty_accesses::.writebacks        37039                       # number of WritebackDirty accesses(hits+misses)
system.l2.WritebackDirty_accesses::total        37039                       # number of WritebackDirty accesses(hits+misses)
system.l2.WritebackClean_hits::.writebacks           32                       # number of WritebackClean hits
system.l2.WritebackClean_hits::total               32                       # number of WritebackClean hits
system.l2.WritebackClean_accesses::.writebacks           32                       # number of WritebackClean accesses(hits+misses)
system.l2.WritebackClean_accesses::total           32                       # number of WritebackClean accesses(hits+misses)
system.l2.CleanEvict_mshr_misses::.writebacks           57                       # number of CleanEvict MSHR misses
system.l2.CleanEvict_mshr_misses::total            57                       # number of CleanEvict MSHR misses
system.l2.CleanEvict_mshr_miss_rate::.writebacks          inf                       # mshr miss rate for CleanEvict accesses
system.l2.CleanEvict_mshr_miss_rate::total          inf                       # mshr miss rate for CleanEvict accesses
system.l2.ReadExReq_hits::.cpu.data             23616                       # number of ReadExReq hits
system.l2.ReadExReq_hits::total                 23616                       # number of ReadExReq hits
system.l2.ReadExReq_misses::.cpu.data            3601                       # number of ReadExReq misses
system.l2.ReadExReq_misses::total                3601                       # number of ReadExReq misses
system.l2.ReadExReq_miss_latency::.cpu.data    305673500                       # number of ReadExReq miss cycles
system.l2.ReadExReq_miss_latency::total     305673500                       # number of ReadExReq miss cycles
system.l2.ReadExReq_accesses::.cpu.data         27217                       # number of ReadExReq accesses(hits+misses)
system.l2.ReadExReq_accesses::total             27217                       # number of ReadExReq accesses(hits+misses)
system.l2.ReadExReq_miss_rate::.cpu.data     0.132307                       # miss rate for ReadExReq accesses
system.l2.ReadExReq_miss_rate::total         0.132307                       # miss rate for ReadExReq accesses
system.l2.ReadExReq_avg_miss_latency::.cpu.data 84885.726187                       # average ReadExReq miss latency
system.l2.ReadExReq_avg_miss_latency::total 84885.726187                       # average ReadExReq miss latency
system.l2.ReadExReq_mshr_misses::.cpu.data         3601                       # number of ReadExReq MSHR misses
system.l2.ReadExReq_mshr_misses::total           3601                       # number of ReadExReq MSHR misses
system.l2.ReadExReq_mshr_miss_latency::.cpu.data    269663500                       # number of ReadExReq MSHR miss cycles
system.l2.ReadExReq_mshr_miss_latency::total    269663500                       # number of ReadExReq MSHR miss cycles
system.l2.ReadExReq_mshr_miss_rate::.cpu.data     0.132307                       # mshr miss rate for ReadExReq accesses
system.l2.ReadExReq_mshr_miss_rate::total     0.132307                       # mshr miss rate for ReadExReq accesses
system.l2.ReadExReq_avg_mshr_miss_latency::.cpu.data 74885.726187                       # average ReadExReq mshr miss latency
system.l2.ReadExReq_avg_mshr_miss_latency::total 74885.726187                       # average ReadExReq mshr miss latency
system.l2.ReadCleanReq_hits::.cpu.inst              2                       # number of ReadCleanReq hits
system.l2.ReadCleanReq_hits::total                  2                       # number of ReadCleanReq hits
system.l2.ReadCleanReq_misses::.cpu.inst         1313                       # number of ReadCleanReq misses
system.l2.ReadCleanReq_misses::total             1313                       # number of ReadCleanReq misses
system.l2.ReadCleanReq_miss_latency::.cpu.inst    100953500                       # number of ReadCleanReq miss cycles
system.l2.ReadCleanReq_miss_latency::total    100953500                       # number of ReadCleanReq miss cycles
system.l2.ReadCleanReq_accesses::.cpu.inst         1315                       # number of ReadCleanReq accesses(hits+misses)
system.l2.ReadCleanReq_accesses::total           1315                       # number of ReadCleanReq accesses(hits+misses)
system.l2.ReadCleanReq_miss_rate::.cpu.inst     0.998479                       # miss rate for ReadCleanReq accesses
system.l2.ReadCleanReq_miss_rate::total      0.998479                       # miss rate for ReadCleanReq accesses
system.l2.ReadCleanReq_avg_miss_latency::.cpu.inst 76887.661843                       # average ReadCleanReq miss latency
system.l2.ReadCleanReq_avg_miss_latency::total 76887.661843                       # average ReadCleanReq miss latency
system.l2.ReadCleanReq_mshr_misses::.cpu.inst         1313                       # number of ReadCleanReq MSHR misses
system.l2.ReadCleanReq_mshr_misses::total         1313                       # number of ReadCleanReq MSHR misses
system.l2.ReadCleanReq_mshr_miss_latency::.cpu.inst     87823500                       # number of ReadCleanReq MSHR miss cycles
system.l2.ReadCleanReq_mshr_miss_latency::total     87823500                       # number of ReadCleanReq MSHR miss cycles
system.l2.ReadCleanReq_mshr_miss_rate::.cpu.inst     0.998479                       # mshr miss rate for ReadCleanReq accesses
system.l2.ReadCleanReq_mshr_miss_rate::total     0.998479                       # mshr miss rate for ReadCleanReq accesses
system.l2.ReadCleanReq_avg_mshr_miss_latency::.cpu.inst 66887.661843                       # average ReadCleanReq mshr miss latency
system.l2.ReadCleanReq_avg_mshr_miss_latency::total 66887.661843                       # average ReadCleanReq mshr miss latency
system.l2.ReadSharedReq_hits::.cpu.data         11513                       # number of ReadSharedReq hits
system.l2.ReadSharedReq_hits::total             11513                       # number of ReadSharedReq hits
system.l2.ReadSharedReq_misses::.cpu.data         1419                       # number of ReadSharedReq misses
system.l2.ReadSharedReq_misses::total            1419                       # number of ReadSharedReq misses
system.l2.ReadSharedReq_miss_latency::.cpu.data    109280000                       # number of ReadSharedReq miss cycles
system.l2.ReadSharedReq_miss_latency::total    109280000                       # number of ReadSharedReq miss cycles
system.l2.ReadSharedReq_accesses::.cpu.data        12932                       # number of ReadSharedReq accesses(hits+misses)
system.l2.ReadSharedReq_accesses::total         12932                       # number of ReadSharedReq accesses(hits+misses)
system.l2.ReadSharedReq_miss_rate::.cpu.data     0.109728                       # miss rate for ReadSharedReq accesses
system.l2.ReadSharedReq_miss_rate::total     0.109728                       # miss rate for ReadSharedReq accesses
system.l2.ReadSharedReq_avg_miss_latency::.cpu.data 77011.980268                       # average ReadSharedReq miss latency
system.l2.ReadSharedReq_avg_miss_latency::total 77011.980268                       # average ReadSharedReq miss latency
system.l2.ReadSharedReq_mshr_misses::.cpu.data         1419                       # number of ReadSharedReq MSHR misses
system.l2.ReadSharedReq_mshr_misses::total         1419                       # number of ReadSharedReq MSHR misses
system.l2.ReadSharedReq_mshr_miss_latency::.cpu.data     95090000                       # number of ReadSharedReq MSHR miss cycles
system.l2.ReadSharedReq_mshr_miss_latency::total     95090000                       # number of ReadSharedReq MSHR miss cycles
system.l2.ReadSharedReq_mshr_miss_rate::.cpu.data     0.109728                       # mshr miss rate for ReadSharedReq accesses
system.l2.ReadSharedReq_mshr_miss_rate::total     0.109728                       # mshr miss rate for ReadSharedReq accesses
system.l2.ReadSharedReq_avg_mshr_miss_latency::.cpu.data 67011.980268                       # average ReadSharedReq mshr miss latency
system.l2.ReadSharedReq_avg_mshr_miss_latency::total 67011.980268                       # average ReadSharedReq mshr miss latency
system.l2.power_state.pwrStateResidencyTicks::UNDEFINED 191058774500                       # Cumulative time (in ticks) in various power states
system.l2.tags.tagsinuse                  5101.072049                       # Cycle average of tags in use
system.l2.tags.total_refs                       79539                       # Total number of references to valid blocks.
system.l2.tags.sampled_refs                      6366                       # Sample count of references to valid blocks.
system.l2.tags.avg_refs                     12.494345                       # Average number of references to valid blocks.
system.l2.tags.warmup_cycle                     77000                       # Cycle when the warmup percentage was hit.
system.l2.tags.occ_blocks::.writebacks      30.417384                       # Average occupied blocks per requestor
system.l2.tags.occ_blocks::.cpu.inst      1090.190568                       # Average occupied blocks per requestor
system.l2.tags.occ_blocks::.cpu.data      3980.464098                       # Average occupied blocks per requestor
system.l2.tags.occ_percent::.writebacks      0.001857                       # Average percentage of cache occupancy
system.l2.tags.occ_percent::.cpu.inst        0.066540                       # Average percentage of cache occupancy
system.l2.tags.occ_percent::.cpu.data        0.242948                       # Average percentage of cache occupancy
system.l2.tags.occ_percent::total            0.311345                       # Average percentage of cache occupancy
system.l2.tags.occ_task_id_blocks::1024          6012                       # Occupied blocks per task id
system.l2.tags.age_task_id_blocks_1024::4         6012                       # Occupied blocks per task id
system.l2.tags.occ_task_id_percent::1024     0.366943                       # Percentage of cache occupancy per task id
system.l2.tags.tag_accesses                     85962                       # Number of tag accesses
system.l2.tags.data_accesses                    85962                       # Number of data accesses
system.l2.tags.power_state.pwrStateResidencyTicks::UNDEFINED 191058774500                       # Cumulative time (in ticks) in various power states
system.cpu_voltage_domain.voltage                   1                       # Voltage in Volts
system.mem_ctrls.bytes_read::.cpu.inst          84032                       # Number of bytes read from this memory
system.mem_ctrls.bytes_read::.cpu.data         321280                       # Number of bytes read from this memory
system.mem_ctrls.bytes_read::total             405312                       # Number of bytes read from this memory
system.mem_ctrls.bytes_inst_read::.cpu.inst        84032                       # Number of instructions bytes read from this memory
system.mem_ctrls.bytes_inst_read::total         84032                       # Number of instructions bytes read from this memory
system.mem_ctrls.bytes_written::.writebacks          512                       # Number of bytes written to this memory
system.mem_ctrls.bytes_written::total             512                       # Number of bytes written to this memory
system.mem_ctrls.num_reads::.cpu.inst            1313                       # Number of read requests responded to by this memory
system.mem_ctrls.num_reads::.cpu.data            5020                       # Number of read requests responded to by this memory
system.mem_ctrls.num_reads::total                6333                       # Number of read requests responded to by this memory
system.mem_ctrls.num_writes::.writebacks            8                       # Number of write requests responded to by this memory
system.mem_ctrls.num_writes::total                  8                       # Number of write requests responded to by this memory
system.mem_ctrls.bw_read::.cpu.inst            439823                       # Total read bandwidth from this memory (bytes/s)
system.mem_ctrls.bw_read::.cpu.data           1681577                       # Total read bandwidth from this memory (bytes/s)
system.mem_ctrls.bw_read::total               2121400                       # Total read bandwidth from this memory (bytes/s)
system.mem_ctrls.bw_inst_read::.cpu.inst       439823                       # Instruction read bandwidth from this memory (bytes/s)
system.mem_ctrls.bw_inst_read::total           439823                       # Instruction read bandwidth from this memory (bytes/s)
system.mem_ctrls.bw_write::.writebacks           2680                       # Write bandwidth from this memory (bytes/s)
system.mem_ctrls.bw_write::total                 2680                       # Write bandwidth from this memory (bytes/s)
system.mem_ctrls.bw_total::.writebacks           2680                       # Total bandwidth to/from this memory (bytes/s)
system.mem_ctrls.bw_total::.cpu.inst           439823                       # Total bandwidth to/from this memory (bytes/s)
system.mem_ctrls.bw_total::.cpu.data          1681577                       # Total bandwidth to/from this memory (bytes/s)
system.mem_ctrls.bw_total::total              2124079                       # Total bandwidth to/from this memory (bytes/s)
system.mem_ctrls.avgPriority_.writebacks::samples         8.00                       # Average QoS priority value for accepted requests
system.mem_ctrls.avgPriority_.cpu.inst::samples      1313.00                       # Average QoS priority value for accepted requests
system.mem_ctrls.avgPriority_.cpu.data::samples      5016.00                       # Average QoS priority value for accepted requests
system.mem_ctrls.priorityMinLatency      0.000000018750                       # per QoS priority minimum request to response latency (s)
system.mem_ctrls.priorityMaxLatency      0.000000578500                       # per QoS priority maximum request to response latency (s)
system.mem_ctrls.numReadWriteTurnArounds            0                       # Number of turnarounds from READ to WRITE
system.mem_ctrls.numWriteReadTurnArounds            0                       # Number of turnarounds from WRITE to READ
system.mem_ctrls.numStayReadState               61739                       # Number of times bus staying in READ state
system.mem_ctrls.numStayWriteState                  0                       # Number of times bus staying in WRITE state
system.mem_ctrls.readReqs                        6333                       # Number of read requests accepted
system.mem_ctrls.writeReqs                          8                       # Number of write requests accepted
system.mem_ctrls.readBursts                      6333                       # Number of DRAM read bursts, including those serviced by the write queue
system.mem_ctrls.writeBursts                        8                       # Number of DRAM write bursts, including those merged in the write queue
system.mem_ctrls.servicedByWrQ                      4                       # Number of DRAM read bursts serviced by the write queue
system.mem_ctrls.mergedWrBursts                     0                       # Number of DRAM write bursts merged with an existing one
system.mem_ctrls.neitherReadNorWriteReqs            0                       # Number of requests that are neither read nor write
system.mem_ctrls.perBankRdBursts::0               312                       # Per bank write bursts
system.mem_ctrls.perBankRdBursts::1               346                       # Per bank write bursts
system.mem_ctrls.perBankRdBursts::2               432                       # Per bank write bursts
system.mem_ctrls.perBankRdBursts::3               318                       # Per bank write bursts
system.mem_ctrls.perBankRdBursts::4               469                       # Per bank write bursts
system.mem_ctrls.perBankRdBursts::5               406                       # Per bank write bursts
system.mem_ctrls.perBankRdBursts::6               327                       # Per bank write bursts
system.mem_ctrls.perBankRdBursts::7               411                       # Per bank write bursts
system.mem_ctrls.perBankRdBursts::8               571                       # Per bank write bursts
system.mem_ctrls.perBankRdBursts::9               516                       # Per bank write bursts
system.mem_ctrls.perBankRdBursts::10              445                       # Per bank write bursts
system.mem_ctrls.perBankRdBursts::11              463                       # Per bank write bursts
system.mem_ctrls.perBankRdBursts::12              365                       # Per bank write bursts
system.mem_ctrls.perBankRdBursts::13              320                       # Per bank write bursts
system.mem_ctrls.perBankRdBursts::14              303                       # Per bank write bursts
system.mem_ctrls.perBankRdBursts::15              325                       # Per bank write bursts
system.mem_ctrls.perBankWrBursts::0                 0                       # Per bank write bursts
system.mem_ctrls.perBankWrBursts::1                 0                       # Per bank write bursts
system.mem_ctrls.perBankWrBursts::2                 0                       # Per bank write bursts
system.mem_ctrls.perBankWrBursts::3                 0                       # Per bank write bursts
system.mem_ctrls.perBankWrBursts::4                 0                       # Per bank write bursts
system.mem_ctrls.perBankWrBursts::5                 0                       # Per bank write bursts
system.mem_ctrls.perBankWrBursts::6                 0                       # Per bank write bursts
system.mem_ctrls.perBankWrBursts::7                 0                       # Per bank write bursts
system.mem_ctrls.perBankWrBursts::8                 0                       # Per bank write bursts
system.mem_ctrls.perBankWrBursts::9                 0                       # Per bank write bursts
system.mem_ctrls.perBankWrBursts::10                0                       # Per bank write bursts
system.mem_ctrls.perBankWrBursts::11                0                       # Per bank write bursts
system.mem_ctrls.perBankWrBursts::12                0                       # Per bank write bursts
system.mem_ctrls.perBankWrBursts::13                0                       # Per bank write bursts
system.mem_ctrls.perBankWrBursts::14                0                       # Per bank write bursts
system.mem_ctrls.perBankWrBursts::15                0                       # Per bank write bursts
system.mem_ctrls.avgRdQLen                       1.04                       # Average read queue length when enqueuing
system.mem_ctrls.avgWrQLen                       7.55                       # Average write queue length when enqueuing
system.mem_ctrls.totQLat                     75090750                       # Total ticks spent queuing
system.mem_ctrls.totBusLat                   31645000                       # Total ticks spent in databus transfers
system.mem_ctrls.totMemAccLat               193759500                       # Total ticks spent from burst creation until serviced by the DRAM
system.mem_ctrls.avgQLat                     11864.55                       # Average queueing delay per DRAM burst
system.mem_ctrls.avgBusLat                    5000.00                       # Average bus latency per DRAM burst
system.mem_ctrls.avgMemAccLat                30614.55                       # Average memory access latency per DRAM burst
system.mem_ctrls.numRdRetry                         0                       # Number of times read queue was full causing retry
system.mem_ctrls.numWrRetry                         0                       # Number of times write queue was full causing retry
system.mem_ctrls.readRowHits                     4321                       # Number of row buffer hits during reads
system.mem_ctrls.writeRowHits                       0                       # Number of row buffer hits during writes
system.mem_ctrls.readRowHitRate                 68.27                       # Row buffer hit rate for reads
system.mem_ctrls.writeRowHitRate                 0.00                       # Row buffer hit rate for writes
system.mem_ctrls.readPktSize::0                     0                       # Read request sizes (log2)
system.mem_ctrls.readPktSize::1                     0                       # Read request sizes (log2)
system.mem_ctrls.readPktSize::2                     0                       # Read request sizes (log2)
system.mem_ctrls.readPktSize::3                     0                       # Read request sizes (log2)
system.mem_ctrls.readPktSize::4                     0                       # Read request sizes (log2)
system.mem_ctrls.readPktSize::5                     0                       # Read request sizes (log2)
system.mem_ctrls.readPktSize::6                  6333                       # Read request sizes (log2)
system.mem_ctrls.writePktSize::0                    0                       # Write request sizes (log2)
system.mem_ctrls.writePktSize::1                    0                       # Write request sizes (log2)
system.mem_ctrls.writePktSize::2                    0                       # Write request sizes (log2)
system.mem_ctrls.writePktSize::3                    0                       # Write request sizes (log2)
system.mem_ctrls.writePktSize::4                    0                       # Write request sizes (log2)
system.mem_ctrls.writePktSize::5                    0                       # Write request sizes (log2)
system.mem_ctrls.writePktSize::6                    8                       # Write request sizes (log2)
system.mem_ctrls.rdQLenPdf::0                    5849                       # What read queue length does an incoming req see
system.mem_ctrls.rdQLenPdf::1                     378                       # What read queue length does an incoming req see
system.mem_ctrls.rdQLenPdf::2                     100                       # What read queue length does an incoming req see
system.mem_ctrls.rdQLenPdf::3                       2                       # What read queue length does an incoming req see
system.mem_ctrls.rdQLenPdf::4                       0                       # What read queue length does an incoming req see
system.mem_ctrls.rdQLenPdf::5                       0                       # What read queue length does an incoming req see
system.mem_ctrls.rdQLenPdf::6                       0                       # What read queue length does an incoming req see
system.mem_ctrls.rdQLenPdf::7                       0                       # What read queue length does an incoming req see
system.mem_ctrls.rdQLenPdf::8                       0                       # What read queue length does an incoming req see
system.mem_ctrls.rdQLenPdf::9                       0                       # What read queue length does an incoming req see
system.mem_ctrls.rdQLenPdf::10                      0                       # What read queue length does an incoming req see
system.mem_ctrls.rdQLenPdf::11                      0                       # What read queue length does an incoming req see
system.mem_ctrls.rdQLenPdf::12                      0                       # What read queue length does an incoming req see
system.mem_ctrls.rdQLenPdf::13                      0                       # What read queue length does an incoming req see
system.mem_ctrls.rdQLenPdf::14                      0                       # What read queue length does an incoming req see
system.mem_ctrls.rdQLenPdf::15                      0                       # What read queue length does an incoming req see
system.mem_ctrls.rdQLenPdf::16                      0                       # What read queue length does an incoming req see
system.mem_ctrls.rdQLenPdf::17                      0                       # What read queue length does an incoming req see
system.mem_ctrls.rdQLenPdf::18                      0                       # What read queue length does an incoming req see
system.mem_ctrls.rdQLenPdf::19                      0                       # What read queue length does an incoming req see
system.mem_ctrls.rdQLenPdf::20                      0                       # What read queue length does an incoming req see
system.mem_ctrls.rdQLenPdf::21                      0                       # What read queue length does an incoming req see
system.mem_ctrls.rdQLenPdf::22                      0                       # What read queue length does an incoming req see
system.mem_ctrls.rdQLenPdf::23                      0                       # What read queue length does an incoming req see
system.mem_ctrls.rdQLenPdf::24                      0                       # What read queue length does an incoming req see
system.mem_ctrls.rdQLenPdf::25                      0                       # What read queue length does an incoming req see
system.mem_ctrls.rdQLenPdf::26                      0                       # What read queue length does an incoming req see
system.mem_ctrls.rdQLenPdf::27                      0                       # What read queue length does an incoming req see
system.mem_ctrls.rdQLenPdf::28                      0                       # What read queue length does an incoming req see
system.mem_ctrls.rdQLenPdf::29                      0                       # What read queue length does an incoming req see
system.mem_ctrls.rdQLenPdf::30                      0                       # What read queue length does an incoming req see
system.mem_ctrls.rdQLenPdf::31                      0                       # What read queue length does an incoming req see
system.mem_ctrls.wrQLenPdf::0                       1                       # What write queue length does an incoming req see
system.mem_ctrls.wrQLenPdf::1                       1                       # What write queue length does an incoming req see
system.mem_ctrls.wrQLenPdf::2                       1                       # What write queue length does an incoming req see
system.mem_ctrls.wrQLenPdf::3                       1                       # What write queue length does an incoming req see
system.mem_ctrls.wrQLenPdf::4                       1                       # What write queue length does an incoming req see
system.mem_ctrls.wrQLenPdf::5                       1                       # What write queue length does an incoming req see
system.mem_ctrls.wrQLenPdf::6                       1                       # What write queue length does an incoming req see
system.mem_ctrls.wrQLenPdf::7                       1                       # What write queue length does an incoming req see
system.mem_ctrls.wrQLenPdf::8                       0                       # What write queue length does an incoming req see
system.mem_ctrls.wrQLenPdf::9                       0                       # What write queue length does an incoming req see
system.mem_ctrls.wrQLenPdf::10                      0                       # What write queue length does an incoming req see
system.mem_ctrls.wrQLenPdf::11                      0                       # What write queue length does an incoming req see
system.mem_ctrls.wrQLenPdf::12                      0                       # What write queue length does an incoming req see
system.mem_ctrls.wrQLenPdf::13                      0                       # What write queue length does an incoming req see
system.mem_ctrls.wrQLenPdf::14                      0                       # What write queue length does an incoming req see
system.mem_ctrls.wrQLenPdf::15                      0                       # What write queue length does an incoming req see
system.mem_ctrls.wrQLenPdf::16                      0                       # What write queue length does an incoming req see
system.mem_ctrls.wrQLenPdf::17                      0                       # What write queue length does an incoming req see
system.mem_ctrls.wrQLenPdf::18                      0                       # What write queue length does an incoming req see
system.mem_ctrls.wrQLenPdf::19                      0                       # What write queue length does an incoming req see
system.mem_ctrls.wrQLenPdf::20                      0                       # What write queue length does an incoming req see
system.mem_ctrls.wrQLenPdf::21                      0                       # What write queue length does an incoming req see
system.mem_ctrls.wrQLenPdf::22                      0                       # What write queue length does an incoming req see
system.mem_ctrls.wrQLenPdf::23                      0                       # What write queue length does an incoming req see
system.mem_ctrls.wrQLenPdf::24                      0                       # What write queue length does an incoming req see
system.mem_ctrls.wrQLenPdf::25                      0                       # What write queue length does an incoming req see
system.mem_ctrls.wrQLenPdf::26                      0                       # What write queue length does an incoming req see
system.mem_ctrls.wrQLenPdf::27                      0                       # What write queue length does an incoming req see
system.mem_ctrls.wrQLenPdf::28                      0                       # What write queue length does an incoming req see
system.mem_ctrls.wrQLenPdf::29                      0                       # What write queue length does an incoming req see
system.mem_ctrls.wrQLenPdf::30                      0                       # What write queue length does an incoming req see
system.mem_ctrls.wrQLenPdf::31                      0                       # What write queue length does an incoming req see
system.mem_ctrls.wrQLenPdf::32                      0                       # What write queue length does an incoming req see
system.mem_ctrls.wrQLenPdf::33                      0                       # What write queue length does an incoming req see
system.mem_ctrls.wrQLenPdf::34                      0                       # What write queue length does an incoming req see
system.mem_ctrls.wrQLenPdf::35                      0                       # What write queue length does an incoming req see
system.mem_ctrls.wrQLenPdf::36                      0                       # What write queue length does an incoming req see
system.mem_ctrls.wrQLenPdf::37                      0                       # What write queue length does an incoming req see
system.mem_ctrls.wrQLenPdf::38                      0                       # What write queue length does an incoming req see
system.mem_ctrls.wrQLenPdf::39                      0                       # What write queue length does an incoming req see
system.mem_ctrls.wrQLenPdf::40                      0                       # What write queue length does an incoming req see
system.mem_ctrls.wrQLenPdf::41                      0                       # What write queue length does an incoming req see
system.mem_ctrls.wrQLenPdf::42                      0                       # What write queue length does an incoming req see
system.mem_ctrls.wrQLenPdf::43                      0                       # What write queue length does an incoming req see
system.mem_ctrls.wrQLenPdf::44                      0                       # What write queue length does an incoming req see
system.mem_ctrls.wrQLenPdf::45                      0                       # What write queue length does an incoming req see
system.mem_ctrls.wrQLenPdf::46                      0                       # What write queue length does an incoming req see
system.mem_ctrls.wrQLenPdf::47                      0                       # What write queue length does an incoming req see
system.mem_ctrls.wrQLenPdf::48                      0                       # What write queue length does an incoming req see
system.mem_ctrls.wrQLenPdf::49                      0                       # What write queue length does an incoming req see
system.mem_ctrls.wrQLenPdf::50                      0                       # What write queue length does an incoming req see
system.mem_ctrls.wrQLenPdf::51                      0                       # What write queue length does an incoming req see
system.mem_ctrls.wrQLenPdf::52                      0                       # What write queue length does an incoming req see
system.mem_ctrls.wrQLenPdf::53                      0                       # What write queue length does an incoming req see
system.mem_ctrls.wrQLenPdf::54                      0                       # What write queue length does an incoming req see
system.mem_ctrls.wrQLenPdf::55                      0                       # What write queue length does an incoming req see
system.mem_ctrls.wrQLenPdf::56                      0                       # What write queue length does an incoming req see
system.mem_ctrls.wrQLenPdf::57                      0                       # What write queue length does an incoming req see
system.mem_ctrls.wrQLenPdf::58                      0                       # What write queue length does an incoming req see
system.mem_ctrls.wrQLenPdf::59                      0                       # What write queue length does an incoming req see
system.mem_ctrls.wrQLenPdf::60                      0                       # What write queue length does an incoming req see
system.mem_ctrls.wrQLenPdf::61                      0                       # What write queue length does an incoming req see
system.mem_ctrls.wrQLenPdf::62                      0                       # What write queue length does an incoming req see
system.mem_ctrls.wrQLenPdf::63                      0                       # What write queue length does an incoming req see
system.mem_ctrls.bytesPerActivate::samples         2008                       # Bytes accessed per row activation
system.mem_ctrls.bytesPerActivate::mean    201.721116                       # Bytes accessed per row activation
system.mem_ctrls.bytesPerActivate::gmean   121.771209                       # Bytes accessed per row activation
system.mem_ctrls.bytesPerActivate::stdev   269.706504                       # Bytes accessed per row activation
system.mem_ctrls.bytesPerActivate::0-127         1035     51.54%     51.54% # Bytes accessed per row activation
system.mem_ctrls.bytesPerActivate::128-255          595     29.63%     81.18% # Bytes accessed per row activation
system.mem_ctrls.bytesPerActivate::256-383           89      4.43%     85.61% # Bytes accessed per row activation
system.mem_ctrls.bytesPerActivate::384-511           60      2.99%     88.60% # Bytes accessed per row activation
system.mem_ctrls.bytesPerActivate::512-639           25      1.25%     89.84% # Bytes accessed per row activation
system.mem_ctrls.bytesPerActivate::640-767           13      0.65%     90.49% # Bytes accessed per row activation
system.mem_ctrls.bytesPerActivate::768-895           35      1.74%     92.23% # Bytes accessed per row activation
system.mem_ctrls.bytesPerActivate::896-1023           17      0.85%     93.08% # Bytes accessed per row activation
system.mem_ctrls.bytesPerActivate::1024-1151          139      6.92%    100.00% # Bytes accessed per row activation
system.mem_ctrls.bytesPerActivate::total         2008                       # Bytes accessed per row activation
system.mem_ctrls.bytesReadDRAM                 405056                       # Total number of bytes read from DRAM
system.mem_ctrls.bytesReadWrQ                     256                       # Total number of bytes read from write queue
system.mem_ctrls.bytesWritten                       0                       # Total number of bytes written to DRAM
system.mem_ctrls.bytesReadSys                  405312                       # Total read bytes from the system interface side
system.mem_ctrls.bytesWrittenSys                  512                       # Total written bytes from the system interface side
system.mem_ctrls.avgRdBW                         2.12                       # Average DRAM read bandwidth in MiByte/s
system.mem_ctrls.avgWrBW                         0.00                       # Average achieved write bandwidth in MiByte/s
system.mem_ctrls.avgRdBWSys                      2.12                       # Average system read bandwidth in MiByte/s
system.mem_ctrls.avgWrBWSys                      0.00                       # Average system write bandwidth in MiByte/s
system.mem_ctrls.peakBW                      12800.00                       # Theoretical peak bandwidth in MiByte/s
system.mem_ctrls.busUtil                         0.02                       # Data bus utilization in percentage
system.mem_ctrls.busUtilRead                     0.02                       # Data bus utilization in percentage for reads
system.mem_ctrls.busUtilWrite                    0.00                       # Data bus utilization in percentage for writes
system.mem_ctrls.totGap                  173221461500                       # Total gap between requests
system.mem_ctrls.avgGap                   27317688.30                       # Average gap between requests
system.mem_ctrls.masterReadBytes::.cpu.inst        84032                       # Per-master bytes read from memory
system.mem_ctrls.masterReadBytes::.cpu.data       321024                       # Per-master bytes read from memory
system.mem_ctrls.masterReadRate::.cpu.inst 439822.772965603857                       # Per-master bytes read from memory rate (Bytes/sec)
system.mem_ctrls.masterReadRate::.cpu.data 1680236.884383449331                       # Per-master bytes read from memory rate (Bytes/sec)
system.mem_ctrls.masterReadAccesses::.cpu.inst         1313                       # Per-master read serviced memory accesses
system.mem_ctrls.masterReadAccesses::.cpu.data         5020                       # Per-master read serviced memory accesses
system.mem_ctrls.masterWriteAccesses::.writebacks            8                       # Per-master write serviced memory accesses
system.mem_ctrls.masterReadTotalLat::.cpu.inst     34213000                       # Per-master read total memory access latency
system.mem_ctrls.masterReadTotalLat::.cpu.data    159546500                       # Per-master read total memory access latency
system.mem_ctrls.masterReadAvgLat::.cpu.inst     26057.12                       # Per-master read average memory access latency
system.mem_ctrls.masterReadAvgLat::.cpu.data     31782.17                       # Per-master read average memory access latency
system.mem_ctrls.masterWriteAvgLat::.writebacks         0.00                       # Per-master write average memory access latency
system.mem_ctrls.pageHitRate                    68.19                       # Row buffer hit rate, read and write combined
system.mem_ctrls.rank1.actEnergy              6840120                       # Energy for activate commands per rank (pJ)
system.mem_ctrls.rank1.preEnergy              3635610                       # Energy for precharge commands per rank (pJ)
system.mem_ctrls.rank1.readEnergy            23619120                       # Energy for read commands per rank (pJ)
system.mem_ctrls.rank1.writeEnergy                  0                       # Energy for write commands per rank (pJ)
system.mem_ctrls.rank1.refreshEnergy     15081421680.000002                       # Energy for refresh commands per rank (pJ)
system.mem_ctrls.rank1.actBackEnergy       3992662470                       # Energy for active background per rank (pJ)
system.mem_ctrls.rank1.preBackEnergy      70004327520                       # Energy for precharge background per rank (pJ)
system.mem_ctrls.rank1.actPowerDownEnergy            0                       # Energy for active power-down per rank (pJ)
system.mem_ctrls.rank1.prePowerDownEnergy            0                       # Energy for precharge power-down per rank (pJ)
system.mem_ctrls.rank1.selfRefreshEnergy            0                       # Energy for self refresh per rank (pJ)
system.mem_ctrls.rank1.totalEnergy        89112506520                       # Total energy per rank (pJ)
system.mem_ctrls.rank1.averagePower        466.414101                       # Core power per rank (mW)
system.mem_ctrls.rank1.totalIdleTime                0                       # Total Idle time Per DRAM Rank
system.mem_ctrls.rank1.memoryStateTime::IDLE 181958045750                       # Time in different power states
system.mem_ctrls.rank1.memoryStateTime::REF   6379620000                       # Time in different power states
system.mem_ctrls.rank1.memoryStateTime::SREF            0                       # Time in different power states
system.mem_ctrls.rank1.memoryStateTime::PRE_PDN            0                       # Time in different power states
system.mem_ctrls.rank1.memoryStateTime::ACT   2721108750                       # Time in different power states
system.mem_ctrls.rank1.memoryStateTime::ACT_PDN            0                       # Time in different power states
system.mem_ctrls.rank0.actEnergy              7497000                       # Energy for activate commands per rank (pJ)
system.mem_ctrls.rank0.preEnergy              3984750                       # Energy for precharge commands per rank (pJ)
system.mem_ctrls.rank0.readEnergy            21569940                       # Energy for read commands per rank (pJ)
system.mem_ctrls.rank0.writeEnergy                  0                       # Energy for write commands per rank (pJ)
system.mem_ctrls.rank0.refreshEnergy     15081421680.000002                       # Energy for refresh commands per rank (pJ)
system.mem_ctrls.rank0.actBackEnergy       4118217510                       # Energy for active background per rank (pJ)
system.mem_ctrls.rank0.preBackEnergy      69898596960                       # Energy for precharge background per rank (pJ)
system.mem_ctrls.rank0.actPowerDownEnergy            0                       # Energy for active power-down per rank (pJ)
system.mem_ctrls.rank0.prePowerDownEnergy            0                       # Energy for precharge power-down per rank (pJ)
system.mem_ctrls.rank0.selfRefreshEnergy            0                       # Energy for self refresh per rank (pJ)
system.mem_ctrls.rank0.totalEnergy        89131287840                       # Total energy per rank (pJ)
system.mem_ctrls.rank0.averagePower        466.512402                       # Core power per rank (mW)
system.mem_ctrls.rank0.totalIdleTime                0                       # Total Idle time Per DRAM Rank
system.mem_ctrls.rank0.memoryStateTime::IDLE 181683565750                       # Time in different power states
system.mem_ctrls.rank0.memoryStateTime::REF   6379620000                       # Time in different power states
system.mem_ctrls.rank0.memoryStateTime::SREF            0                       # Time in different power states
system.mem_ctrls.rank0.memoryStateTime::PRE_PDN            0                       # Time in different power states
system.mem_ctrls.rank0.memoryStateTime::ACT   2995588750                       # Time in different power states
system.mem_ctrls.rank0.memoryStateTime::ACT_PDN            0                       # Time in different power states
system.mem_ctrls.power_state.pwrStateResidencyTicks::UNDEFINED 191058774500                       # Cumulative time (in ticks) in various power states
system.cpu_clk_domain.clock                       500                       # Clock period in ticks
system.cpu.icache.demand_hits::.cpu.inst    139164386                       # number of demand (read+write) hits
system.cpu.icache.demand_hits::total        139164386                       # number of demand (read+write) hits
system.cpu.icache.overall_hits::.cpu.inst    139164386                       # number of overall hits
system.cpu.icache.overall_hits::total       139164386                       # number of overall hits
system.cpu.icache.demand_misses::.cpu.inst         1315                       # number of demand (read+write) misses
system.cpu.icache.demand_misses::total           1315                       # number of demand (read+write) misses
system.cpu.icache.overall_misses::.cpu.inst         1315                       # number of overall misses
system.cpu.icache.overall_misses::total          1315                       # number of overall misses
system.cpu.icache.demand_miss_latency::.cpu.inst    104264000                       # number of demand (read+write) miss cycles
system.cpu.icache.demand_miss_latency::total    104264000                       # number of demand (read+write) miss cycles
system.cpu.icache.overall_miss_latency::.cpu.inst    104264000                       # number of overall miss cycles
system.cpu.icache.overall_miss_latency::total    104264000                       # number of overall miss cycles
system.cpu.icache.demand_accesses::.cpu.inst    139165701                       # number of demand (read+write) accesses
system.cpu.icache.demand_accesses::total    139165701                       # number of demand (read+write) accesses
system.cpu.icache.overall_accesses::.cpu.inst    139165701                       # number of overall (read+write) accesses
system.cpu.icache.overall_accesses::total    139165701                       # number of overall (read+write) accesses
system.cpu.icache.demand_miss_rate::.cpu.inst     0.000009                       # miss rate for demand accesses
system.cpu.icache.demand_miss_rate::total     0.000009                       # miss rate for demand accesses
system.cpu.icache.overall_miss_rate::.cpu.inst     0.000009                       # miss rate for overall accesses
system.cpu.icache.overall_miss_rate::total     0.000009                       # miss rate for overall accesses
system.cpu.icache.demand_avg_miss_latency::.cpu.inst 79288.212928                       # average overall miss latency
system.cpu.icache.demand_avg_miss_latency::total 79288.212928                       # average overall miss latency
system.cpu.icache.overall_avg_miss_latency::.cpu.inst 79288.212928                       # average overall miss latency
system.cpu.icache.overall_avg_miss_latency::total 79288.212928                       # average overall miss latency
system.cpu.icache.blocked_cycles::no_mshrs            0                       # number of cycles access was blocked
system.cpu.icache.blocked_cycles::no_targets            0                       # number of cycles access was blocked
system.cpu.icache.blocked::no_mshrs                 0                       # number of cycles access was blocked
system.cpu.icache.blocked::no_targets               0                       # number of cycles access was blocked
system.cpu.icache.avg_blocked_cycles::no_mshrs          nan                       # average number of cycles each access was blocked
system.cpu.icache.avg_blocked_cycles::no_targets          nan                       # average number of cycles each access was blocked
system.cpu.icache.writebacks::.writebacks           32                       # number of writebacks
system.cpu.icache.writebacks::total                32                       # number of writebacks
system.cpu.icache.demand_mshr_misses::.cpu.inst         1315                       # number of demand (read+write) MSHR misses
system.cpu.icache.demand_mshr_misses::total         1315                       # number of demand (read+write) MSHR misses
system.cpu.icache.overall_mshr_misses::.cpu.inst         1315                       # number of overall MSHR misses
system.cpu.icache.overall_mshr_misses::total         1315                       # number of overall MSHR misses
system.cpu.icache.demand_mshr_miss_latency::.cpu.inst    102949000                       # number of demand (read+write) MSHR miss cycles
system.cpu.icache.demand_mshr_miss_latency::total    102949000                       # number of demand (read+write) MSHR miss cycles
system.cpu.icache.overall_mshr_miss_latency::.cpu.inst    102949000                       # number of overall MSHR miss cycles
system.cpu.icache.overall_mshr_miss_latency::total    102949000                       # number of overall MSHR miss cycles
system.cpu.icache.demand_mshr_miss_rate::.cpu.inst     0.000009                       # mshr miss rate for demand accesses
system.cpu.icache.demand_mshr_miss_rate::total     0.000009                       # mshr miss rate for demand accesses
system.cpu.icache.overall_mshr_miss_rate::.cpu.inst     0.000009                       # mshr miss rate for overall accesses
system.cpu.icache.overall_mshr_miss_rate::total     0.000009                       # mshr miss rate for overall accesses
system.cpu.icache.demand_avg_mshr_miss_latency::.cpu.inst 78288.212928                       # average overall mshr miss latency
system.cpu.icache.demand_avg_mshr_miss_latency::total 78288.212928                       # average overall mshr miss latency
system.cpu.icache.overall_avg_mshr_miss_latency::.cpu.inst 78288.212928                       # average overall mshr miss latency
system.cpu.icache.overall_avg_mshr_miss_latency::total 78288.212928                       # average overall mshr miss latency
system.cpu.icache.replacements                     32                       # number of replacements
system.cpu.icache.ReadReq_hits::.cpu.inst    139164386                       # number of ReadReq hits
system.cpu.icache.ReadReq_hits::total       139164386                       # number of ReadReq hits
system.cpu.icache.ReadReq_misses::.cpu.inst         1315                       # number of ReadReq misses
system.cpu.icache.ReadReq_misses::total          1315                       # number of ReadReq misses
system.cpu.icache.ReadReq_miss_latency::.cpu.inst    104264000                       # number of ReadReq miss cycles
system.cpu.icache.ReadReq_miss_latency::total    104264000                       # number of ReadReq miss cycles
system.cpu.icache.ReadReq_accesses::.cpu.inst    139165701                       # number of ReadReq accesses(hits+misses)
system.cpu.icache.ReadReq_accesses::total    139165701                       # number of ReadReq accesses(hits+misses)
system.cpu.icache.ReadReq_miss_rate::.cpu.inst     0.000009                       # miss rate for ReadReq accesses
system.cpu.icache.ReadReq_miss_rate::total     0.000009                       # miss rate for ReadReq accesses
system.cpu.icache.ReadReq_avg_miss_latency::.cpu.inst 79288.212928                       # average ReadReq miss latency
system.cpu.icache.ReadReq_avg_miss_latency::total 79288.212928                       # average ReadReq miss latency
system.cpu.icache.ReadReq_mshr_misses::.cpu.inst         1315                       # number of ReadReq MSHR misses
[...]
system.cpu.icache.tags.occ_task_id_blocks::1024         1283                       # Occupied blocks per task id
system.cpu.icache.tags.age_task_id_blocks_1024::4         1283                       # Occupied blocks per task id
system.cpu.icache.tags.occ_task_id_percent::1024     0.313232                       # Percentage of cache occupancy per task id
system.cpu.icache.tags.tag_accesses         278332717                       # Number of tag accesses
system.cpu.icache.tags.data_accesses        278332717                       # Number of data accesses
system.cpu.icache.tags.power_state.pwrStateResidencyTicks::UNDEFINED 191058774500                       # Cumulative time (in ticks) in various power states
system.cpu.dtb.walker.power_state.pwrStateResidencyTicks::UNDEFINED 191058774500                       # Cumulative time (in ticks) in various power states
system.cpu.interrupts.clk_domain.clock           8000                       # Clock period in ticks
system.cpu.itb_walker_cache.blocked_cycles::no_mshrs            0                       # number of cycles access was blocked
system.cpu.itb_walker_cache.blocked_cycles::no_targets            0                       # number of cycles access was blocked
system.cpu.itb_walker_cache.blocked::no_mshrs            0                       # number of cycles access was blocked
system.cpu.itb_walker_cache.blocked::no_targets            0                       # number of cycles access was blocked
system.cpu.itb_walker_cache.avg_blocked_cycles::no_mshrs          nan                       # average number of cycles each access was blocked
system.cpu.itb_walker_cache.avg_blocked_cycles::no_targets          nan                       # average number of cycles each access was blocked
system.cpu.itb_walker_cache.replacements            0                       # number of replacements
system.cpu.itb_walker_cache.power_state.pwrStateResidencyTicks::UNDEFINED 191058774500                       # Cumulative time (in ticks) in various power states
system.cpu.itb_walker_cache.tags.tagsinuse            0                       # Cycle average of tags in use
system.cpu.itb_walker_cache.tags.total_refs            0                       # Total number of references to valid blocks.
system.cpu.itb_walker_cache.tags.sampled_refs            0                       # Sample count of references to valid blocks.
system.cpu.itb_walker_cache.tags.avg_refs          nan                       # Average number of references to valid blocks.
system.cpu.itb_walker_cache.tags.warmup_cycle            0                       # Cycle when the warmup percentage was hit.
system.cpu.itb_walker_cache.tags.tag_accesses            0                       # Number of tag accesses
system.cpu.itb_walker_cache.tags.data_accesses            0                       # Number of data accesses
system.cpu.itb_walker_cache.tags.power_state.pwrStateResidencyTicks::UNDEFINED 191058774500                       # Cumulative time (in ticks) in various power states
system.cpu.itb.walker.power_state.pwrStateResidencyTicks::UNDEFINED 191058774500                       # Cumulative time (in ticks) in various power states
system.cpu.dtb_walker_cache.blocked_cycles::no_mshrs            0                       # number of cycles access was blocked
system.cpu.dtb_walker_cache.blocked_cycles::no_targets            0                       # number of cycles access was blocked
system.cpu.dtb_walker_cache.blocked::no_mshrs            0                       # number of cycles access was blocked
system.cpu.dtb_walker_cache.blocked::no_targets            0                       # number of cycles access was blocked
system.cpu.dtb_walker_cache.avg_blocked_cycles::no_mshrs          nan                       # average number of cycles each access was blocked
system.cpu.dtb_walker_cache.avg_blocked_cycles::no_targets          nan                       # average number of cycles each access was blocked
system.cpu.dtb_walker_cache.replacements            0                       # number of replacements
system.cpu.dtb_walker_cache.power_state.pwrStateResidencyTicks::UNDEFINED 191058774500                       # Cumulative time (in ticks) in various power states
system.cpu.dtb_walker_cache.tags.tagsinuse            0                       # Cycle average of tags in use
system.cpu.dtb_walker_cache.tags.total_refs            0                       # Total number of references to valid blocks.
system.cpu.dtb_walker_cache.tags.sampled_refs            0                       # Sample count of references to valid blocks.
system.cpu.dtb_walker_cache.tags.avg_refs          nan                       # Average number of references to valid blocks.
system.cpu.dtb_walker_cache.tags.warmup_cycle            0                       # Cycle when the warmup percentage was hit.
system.cpu.dtb_walker_cache.tags.tag_accesses            0                       # Number of tag accesses
system.cpu.dtb_walker_cache.tags.data_accesses            0                       # Number of data accesses
system.cpu.dtb_walker_cache.tags.power_state.pwrStateResidencyTicks::UNDEFINED 191058774500                       # Cumulative time (in ticks) in various power states
system.cpu.dcache.demand_hits::.cpu.data     50981095                       # number of demand (read+write) hits
system.cpu.dcache.demand_hits::total         50981095                       # number of demand (read+write) hits
system.cpu.dcache.overall_hits::.cpu.data     50983203                       # number of overall hits
system.cpu.dcache.overall_hits::total        50983203                       # number of overall hits
system.cpu.dcache.demand_misses::.cpu.data        37766                       # number of demand (read+write) misses
system.cpu.dcache.demand_misses::total          37766                       # number of demand (read+write) misses
system.cpu.dcache.overall_misses::.cpu.data        40149                       # number of overall misses
system.cpu.dcache.overall_misses::total         40149                       # number of overall misses
system.cpu.dcache.demand_miss_latency::.cpu.data    802811500                       # number of demand (read+write) miss cycles
system.cpu.dcache.demand_miss_latency::total    802811500                       # number of demand (read+write) miss cycles
system.cpu.dcache.overall_miss_latency::.cpu.data    802811500                       # number of overall miss cycles
system.cpu.dcache.overall_miss_latency::total    802811500                       # number of overall miss cycles
system.cpu.dcache.demand_accesses::.cpu.data     51018861                       # number of demand (read+write) accesses
system.cpu.dcache.demand_accesses::total     51018861                       # number of demand (read+write) accesses
system.cpu.dcache.overall_accesses::.cpu.data     51023352                       # number of overall (read+write) accesses
system.cpu.dcache.overall_accesses::total     51023352                       # number of overall (read+write) accesses
system.cpu.dcache.demand_miss_rate::.cpu.data     0.000740                       # miss rate for demand accesses
system.cpu.dcache.demand_miss_rate::total     0.000740                       # miss rate for demand accesses
system.cpu.dcache.overall_miss_rate::.cpu.data     0.000787                       # miss rate for overall accesses
system.cpu.dcache.overall_miss_rate::total     0.000787                       # miss rate for overall accesses
system.cpu.dcache.demand_avg_miss_latency::.cpu.data 21257.519992                       # average overall miss latency
system.cpu.dcache.demand_avg_miss_latency::total 21257.519992                       # average overall miss latency
system.cpu.dcache.overall_avg_miss_latency::.cpu.data 19995.803133                       # average overall miss latency
system.cpu.dcache.overall_avg_miss_latency::total 19995.803133                       # average overall miss latency
system.cpu.dcache.blocked_cycles::no_mshrs         4535                       # number of cycles access was blocked
system.cpu.dcache.blocked_cycles::no_targets            0                       # number of cycles access was blocked
system.cpu.dcache.blocked::no_mshrs               174                       # number of cycles access was blocked
system.cpu.dcache.blocked::no_targets               0                       # number of cycles access was blocked
system.cpu.dcache.avg_blocked_cycles::no_mshrs    26.063218                       # average number of cycles each access was blocked
system.cpu.dcache.avg_blocked_cycles::no_targets          nan                       # average number of cycles each access was blocked
system.cpu.dcache.writebacks::.writebacks        37039                       # number of writebacks
system.cpu.dcache.writebacks::total             37039                       # number of writebacks
system.cpu.dcache.demand_mshr_misses::.cpu.data        37766                       # number of demand (read+write) MSHR misses
system.cpu.dcache.demand_mshr_misses::total        37766                       # number of demand (read+write) MSHR misses
system.cpu.dcache.overall_mshr_misses::.cpu.data        40149                       # number of overall MSHR misses
system.cpu.dcache.overall_mshr_misses::total        40149                       # number of overall MSHR misses
system.cpu.dcache.demand_mshr_miss_latency::.cpu.data    765045500                       # number of demand (read+write) MSHR miss cycles
system.cpu.dcache.demand_mshr_miss_latency::total    765045500                       # number of demand (read+write) MSHR miss cycles
system.cpu.dcache.overall_mshr_miss_latency::.cpu.data    844350000                       # number of overall MSHR miss cycles
system.cpu.dcache.overall_mshr_miss_latency::total    844350000                       # number of overall MSHR miss cycles
system.cpu.dcache.demand_mshr_miss_rate::.cpu.data     0.000740                       # mshr miss rate for demand accesses
system.cpu.dcache.demand_mshr_miss_rate::total     0.000740                       # mshr miss rate for demand accesses
system.cpu.dcache.overall_mshr_miss_rate::.cpu.data     0.000787                       # mshr miss rate for overall accesses
system.cpu.dcache.overall_mshr_miss_rate::total     0.000787                       # mshr miss rate for overall accesses
system.cpu.dcache.demand_avg_mshr_miss_latency::.cpu.data 20257.519992                       # average overall mshr miss latency
system.cpu.dcache.demand_avg_mshr_miss_latency::total 20257.519992                       # average overall mshr miss latency
system.cpu.dcache.overall_avg_mshr_miss_latency::.cpu.data 21030.411716                       # average overall mshr miss latency
system.cpu.dcache.overall_avg_mshr_miss_latency::total 21030.411716                       # average overall mshr miss latency
system.cpu.dcache.replacements                  38101                       # number of replacements
system.cpu.dcache.ReadReq_hits::.cpu.data     43790172                       # number of ReadReq hits
system.cpu.dcache.ReadReq_hits::total        43790172                       # number of ReadReq hits
system.cpu.dcache.ReadReq_misses::.cpu.data        10549                       # number of ReadReq misses
system.cpu.dcache.ReadReq_misses::total         10549                       # number of ReadReq misses
system.cpu.dcache.ReadReq_miss_latency::.cpu.data    180993000                       # number of ReadReq miss cycles
system.cpu.dcache.ReadReq_miss_latency::total    180993000                       # number of ReadReq miss cycles
system.cpu.dcache.ReadReq_accesses::.cpu.data     43800721                       # number of ReadReq accesses(hits+misses)
system.cpu.dcache.ReadReq_accesses::total     43800721                       # number of ReadReq accesses(hits+misses)
system.cpu.dcache.ReadReq_miss_rate::.cpu.data     0.000241                       # miss rate for ReadReq accesses
system.cpu.dcache.ReadReq_miss_rate::total     0.000241                       # miss rate for ReadReq accesses
system.cpu.dcache.ReadReq_avg_miss_latency::.cpu.data 17157.360887                       # average ReadReq miss latency
system.cpu.dcache.ReadReq_avg_miss_latency::total 17157.360887                       # average ReadReq miss latency
system.cpu.dcache.ReadReq_mshr_misses::.cpu.data        10549                       # number of ReadReq MSHR misses
system.cpu.dcache.ReadReq_mshr_misses::total        10549                       # number of ReadReq MSHR misses
system.cpu.dcache.ReadReq_mshr_miss_latency::.cpu.data    170444000                       # number of ReadReq MSHR miss cycles
system.cpu.dcache.ReadReq_mshr_miss_latency::total    170444000                       # number of ReadReq MSHR miss cycles
system.cpu.dcache.ReadReq_mshr_miss_rate::.cpu.data     0.000241                       # mshr miss rate for ReadReq accesses
system.cpu.dcache.ReadReq_mshr_miss_rate::total     0.000241                       # mshr miss rate for ReadReq accesses
system.cpu.dcache.ReadReq_avg_mshr_miss_latency::.cpu.data 16157.360887                       # average ReadReq mshr miss latency
system.cpu.dcache.ReadReq_avg_mshr_miss_latency::total 16157.360887                       # average ReadReq mshr miss latency
system.cpu.dcache.WriteReq_hits::.cpu.data      7190923                       # number of WriteReq hits
system.cpu.dcache.WriteReq_hits::total        7190923                       # number of WriteReq hits
system.cpu.dcache.WriteReq_misses::.cpu.data        27217                       # number of WriteReq misses
system.cpu.dcache.WriteReq_misses::total        27217                       # number of WriteReq misses
system.cpu.dcache.WriteReq_miss_latency::.cpu.data    621818500                       # number of WriteReq miss cycles
system.cpu.dcache.WriteReq_miss_latency::total    621818500                       # number of WriteReq miss cycles
system.cpu.dcache.WriteReq_accesses::.cpu.data      7218140                       # number of WriteReq accesses(hits+misses)
system.cpu.dcache.WriteReq_accesses::total      7218140                       # number of WriteReq accesses(hits+misses)
system.cpu.dcache.WriteReq_miss_rate::.cpu.data     0.003771                       # miss rate for WriteReq accesses
system.cpu.dcache.WriteReq_miss_rate::total     0.003771                       # miss rate for WriteReq accesses
system.cpu.dcache.WriteReq_avg_miss_latency::.cpu.data 22846.695080                       # average WriteReq miss latency
system.cpu.dcache.WriteReq_avg_miss_latency::total 22846.695080                       # average WriteReq miss latency
system.cpu.dcache.WriteReq_mshr_misses::.cpu.data        27217                       # number of WriteReq MSHR misses
system.cpu.dcache.WriteReq_mshr_misses::total        27217                       # number of WriteReq MSHR misses
system.cpu.dcache.WriteReq_mshr_miss_latency::.cpu.data    594601500                       # number of WriteReq MSHR miss cycles
system.cpu.dcache.WriteReq_mshr_miss_latency::total    594601500                       # number of WriteReq MSHR miss cycles
system.cpu.dcache.WriteReq_mshr_miss_rate::.cpu.data     0.003771                       # mshr miss rate for WriteReq accesses
system.cpu.dcache.WriteReq_mshr_miss_rate::total     0.003771                       # mshr miss rate for WriteReq accesses
system.cpu.dcache.WriteReq_avg_mshr_miss_latency::.cpu.data 21846.695080                       # average WriteReq mshr miss latency
system.cpu.dcache.WriteReq_avg_mshr_miss_latency::total 21846.695080                       # average WriteReq mshr miss latency
system.cpu.dcache.SoftPFReq_hits::.cpu.data         2108                       # number of SoftPFReq hits
system.cpu.dcache.SoftPFReq_hits::total          2108                       # number of SoftPFReq hits
system.cpu.dcache.SoftPFReq_misses::.cpu.data         2383                       # number of SoftPFReq misses
system.cpu.dcache.SoftPFReq_misses::total         2383                       # number of SoftPFReq misses
system.cpu.dcache.SoftPFReq_accesses::.cpu.data         4491                       # number of SoftPFReq accesses(hits+misses)
system.cpu.dcache.SoftPFReq_accesses::total         4491                       # number of SoftPFReq accesses(hits+misses)
system.cpu.dcache.SoftPFReq_miss_rate::.cpu.data     0.530617                       # miss rate for SoftPFReq accesses
system.cpu.dcache.SoftPFReq_miss_rate::total     0.530617                       # miss rate for SoftPFReq accesses
system.cpu.dcache.SoftPFReq_mshr_misses::.cpu.data         2383                       # number of SoftPFReq MSHR misses
system.cpu.dcache.SoftPFReq_mshr_misses::total         2383                       # number of SoftPFReq MSHR misses
system.cpu.dcache.SoftPFReq_mshr_miss_latency::.cpu.data     79304500                       # number of SoftPFReq MSHR miss cycles
system.cpu.dcache.SoftPFReq_mshr_miss_latency::total     79304500                       # number of SoftPFReq MSHR miss cycles
system.cpu.dcache.SoftPFReq_mshr_miss_rate::.cpu.data     0.530617                       # mshr miss rate for SoftPFReq accesses
system.cpu.dcache.SoftPFReq_mshr_miss_rate::total     0.530617                       # mshr miss rate for SoftPFReq accesses
system.cpu.dcache.SoftPFReq_avg_mshr_miss_latency::.cpu.data 33279.269828                       # average SoftPFReq mshr miss latency
system.cpu.dcache.SoftPFReq_avg_mshr_miss_latency::total 33279.269828                       # average SoftPFReq mshr miss latency
system.cpu.dcache.power_state.pwrStateResidencyTicks::UNDEFINED 191058774500                       # Cumulative time (in ticks) in various power states
system.cpu.dcache.tags.tagsinuse          2024.292622                       # Cycle average of tags in use
system.cpu.dcache.tags.total_refs            51023352                       # Total number of references to valid blocks.
system.cpu.dcache.tags.sampled_refs             40149                       # Sample count of references to valid blocks.
system.cpu.dcache.tags.avg_refs           1270.849884                       # Average number of references to valid blocks.
system.cpu.dcache.tags.warmup_cycle            175500                       # Cycle when the warmup percentage was hit.
system.cpu.dcache.tags.occ_blocks::.cpu.data  2024.292622                       # Average occupied blocks per requestor
system.cpu.dcache.tags.occ_percent::.cpu.data     0.988424                       # Average percentage of cache occupancy
system.cpu.dcache.tags.occ_percent::total     0.988424                       # Average percentage of cache occupancy
system.cpu.dcache.tags.occ_task_id_blocks::1024         2048                       # Occupied blocks per task id
system.cpu.dcache.tags.age_task_id_blocks_1024::2           59                       # Occupied blocks per task id
system.cpu.dcache.tags.age_task_id_blocks_1024::3          353                       # Occupied blocks per task id
system.cpu.dcache.tags.age_task_id_blocks_1024::4         1636                       # Occupied blocks per task id
system.cpu.dcache.tags.occ_task_id_percent::1024            1                       # Percentage of cache occupancy per task id
system.cpu.dcache.tags.tag_accesses         102086853                       # Number of tag accesses
system.cpu.dcache.tags.data_accesses        102086853                       # Number of data accesses
system.cpu.dcache.tags.power_state.pwrStateResidencyTicks::UNDEFINED 191058774500                       # Cumulative time (in ticks) in various power states
system.cpu.power_state.numTransitions               1                       # Number of power state transitions
system.cpu.power_state.pwrStateResidencyTicks::ON 191058774500                       # Cumulative time (in ticks) in various power states

---------- End Simulation Statistics   ----------
