
---------- Begin Simulation Statistics ----------
final_tick                               190663679500                       # Number of ticks from beginning of simulation (restored from checkpoints and never reset)
host_inst_rate                                 296002                       # Simulator instruction rate (inst/s)
host_mem_usage                                 838392                       # Number of bytes of host memory used
host_op_rate                                   383658                       # Simulator op (including micro ops) rate (op/s)
host_seconds                                   337.84                       # Real time elapsed on the host
host_tick_rate                              564368077                       # Simulator tick rate (ticks/s)
sim_freq                                 1000000000000                       # Frequency of simulated ticks
sim_insts                                   100000000                       # Number of instructions simulated
sim_ops                                     129613377                       # Number of ops (including micro ops) simulated
sim_seconds                                  0.190664                       # Number of seconds simulated
sim_ticks                                190663679500                       # Number of ticks simulated
system.cpu.Branches                           5617807                       # Number of branches fetched
system.cpu.committedInsts                   100000000                       # Number of instructions committed
system.cpu.committedOps                     129613377                       # Number of ops (including micro ops) committed
system.cpu.dtb.rdAccesses                    43805346                       # TLB accesses on read requests
system.cpu.dtb.rdMisses                           210                       # TLB misses on read requests
system.cpu.dtb.wrAccesses                     7218183                       # TLB accesses on write requests
system.cpu.dtb.wrMisses                           154                       # TLB misses on write requests
system.cpu.idle_fraction                            0                       # Percentage of idle cycles
system.cpu.itb.rdAccesses                           0                       # TLB accesses on read requests
system.cpu.itb.rdMisses                             0                       # TLB misses on read requests
system.cpu.itb.wrAccesses                   139165701                       # TLB accesses on write requests
system.cpu.itb.wrMisses                            95                       # TLB misses on write requests
system.cpu.not_idle_fraction                        1                       # Percentage of non-idle cycles
system.cpu.numCycles                        381327359                       # number of cpu cycles simulated
system.cpu.numWorkItemsCompleted                    0                       # number of work items this cpu completed
system.cpu.numWorkItemsStarted                      0                       # number of work items this cpu started
system.cpu.num_busy_cycles                  381327359                       # Number of busy cycles
system.cpu.num_cc_register_reads             37963035                       # number of times the CC registers were read
system.cpu.num_cc_register_writes            52207152                       # number of times the CC registers were written
system.cpu.num_conditional_control_insts      5137538                       # number of instructions that are conditional controls
system.cpu.num_fp_alu_accesses                5793491                       # Number of float alu accesses
system.cpu.num_fp_insts                       5793491                       # number of float instructions
system.cpu.num_fp_register_reads              4659032                       # number of times the floating registers were read
system.cpu.num_fp_register_writes             4971622                       # number of times the floating registers were written
system.cpu.num_func_calls                      316177                       # number of times a function call or return occured
system.cpu.num_idle_cycles                          0                       # Number of idle cycles
system.cpu.num_int_alu_accesses             125549943                       # Number of integer alu accesses
system.cpu.num_int_insts                    125549943                       # number of integer instructions
system.cpu.num_int_register_reads           294172459                       # number of times the integer registers were read
system.cpu.num_int_register_writes          114123336                       # number of times the integer registers were written
system.cpu.num_load_insts                    43804861                       # Number of load instructions
system.cpu.num_mem_refs                      51023024                       # number of memory refs
system.cpu.num_store_insts                    7218163                       # Number of store instructions
system.cpu.num_vec_alu_accesses                     0                       # Number of vector alu accesses
system.cpu.num_vec_insts                            0                       # number of vector instructions
system.cpu.num_vec_register_reads                   0                       # number of times the vector registers were read
system.cpu.num_vec_register_writes                  0                       # number of times the vector registers were written
system.cpu.op_class::No_OpClass                349946      0.27%      0.27% # Class of executed instruction
system.cpu.op_class::IntAlu                  73091847     56.39%     56.66% # Class of executed instruction
system.cpu.op_class::IntMult                   134167      0.10%     56.77% # Class of executed instruction
system.cpu.op_class::IntDiv                   1267698      0.98%     57.74% # Class of executed instruction
system.cpu.op_class::FloatAdd                 2000005      1.54%     59.29% # Class of executed instruction
system.cpu.op_class::FloatCmp                       0      0.00%     59.29% # Class of executed instruction
system.cpu.op_class::FloatCvt                       0      0.00%     59.29% # Class of executed instruction
system.cpu.op_class::FloatMult                      0      0.00%     59.29% # Class of executed instruction
system.cpu.op_class::FloatMultAcc                   0      0.00%     59.29% # Class of executed instruction
system.cpu.op_class::FloatDiv                       0      0.00%     59.29% # Class of executed instruction
system.cpu.op_class::FloatMisc                      0      0.00%     59.29% # Class of executed instruction
system.cpu.op_class::FloatSqrt                      0      0.00%     59.29% # Class of executed instruction
system.cpu.op_class::SimdAdd                      394      0.00%     59.29% # Class of executed instruction
system.cpu.op_class::SimdAddAcc                     0      0.00%     59.29% # Class of executed instruction
system.cpu.op_class::SimdAlu                   162706      0.13%     59.41% # Class of executed instruction
system.cpu.op_class::SimdCmp                      186      0.00%     59.41% # Class of executed instruction
system.cpu.op_class::SimdCvt                   180568      0.14%     59.55% # Class of executed instruction
system.cpu.op_class::SimdMisc                  401125      0.31%     59.86% # Class of executed instruction
system.cpu.op_class::SimdMult                       0      0.00%     59.86% # Class of executed instruction
system.cpu.op_class::SimdMultAcc                    0      0.00%     59.86% # Class of executed instruction
system.cpu.op_class::SimdShift                     96      0.00%     59.86% # Class of executed instruction
system.cpu.op_class::SimdShiftAcc                   0      0.00%     59.86% # Class of executed instruction
system.cpu.op_class::SimdDiv                        0      0.00%     59.86% # Class of executed instruction
system.cpu.op_class::SimdSqrt                       0      0.00%     59.86% # Class of executed instruction
system.cpu.op_class::SimdFloatAdd              339946      0.26%     60.12% # Class of executed instruction
system.cpu.op_class::SimdFloatAlu                   0      0.00%     60.12% # Class of executed instruction
system.cpu.op_class::SimdFloatCmp                   0      0.00%     60.12% # Class of executed instruction
system.cpu.op_class::SimdFloatCvt              546001      0.42%     60.55% # Class of executed instruction
system.cpu.op_class::SimdFloatDiv               63457      0.05%     60.59% # Class of executed instruction
system.cpu.op_class::SimdFloatMisc                  0      0.00%     60.59% # Class of executed instruction
system.cpu.op_class::SimdFloatMult              52428      0.04%     60.63% # Class of executed instruction
system.cpu.op_class::SimdFloatMultAcc               0      0.00%     60.63% # Class of executed instruction
system.cpu.op_class::SimdFloatSqrt                  0      0.00%     60.63% # Class of executed instruction
system.cpu.op_class::SimdReduceAdd                  0      0.00%     60.63% # Class of executed instruction
system.cpu.op_class::SimdReduceAlu                  0      0.00%     60.63% # Class of executed instruction
system.cpu.op_class::SimdReduceCmp                  0      0.00%     60.63% # Class of executed instruction
system.cpu.op_class::SimdFloatReduceAdd             0      0.00%     60.63% # Class of executed instruction
system.cpu.op_class::SimdFloatReduceCmp             0      0.00%     60.63% # Class of executed instruction
system.cpu.op_class::SimdAes                        0      0.00%     60.63% # Class of executed instruction
system.cpu.op_class::SimdAesMix                     0      0.00%     60.63% # Class of executed instruction
system.cpu.op_class::SimdSha1Hash                   0      0.00%     60.63% # Class of executed instruction
system.cpu.op_class::SimdSha1Hash2                  0      0.00%     60.63% # Class of executed instruction
system.cpu.op_class::SimdSha256Hash                 0      0.00%     60.63% # Class of executed instruction
system.cpu.op_class::SimdSha256Hash2                0      0.00%     60.63% # Class of executed instruction
system.cpu.op_class::SimdShaSigma2                  0      0.00%     60.63% # Class of executed instruction
system.cpu.op_class::SimdShaSigma3                  0      0.00%     60.63% # Class of executed instruction
system.cpu.op_class::SimdPredAlu                    0      0.00%     60.63% # Class of executed instruction
system.cpu.op_class::MemRead                 42320670     32.65%     93.29% # Class of executed instruction
system.cpu.op_class::MemWrite                 6838627      5.28%     98.56% # Class of executed instruction
system.cpu.op_class::FloatMemRead             1484191      1.15%     99.71% # Class of executed instruction
system.cpu.op_class::FloatMemWrite             379536      0.29%    100.00% # Class of executed instruction
system.cpu.op_class::IprAccess                      0      0.00%    100.00% # Class of executed instruction
system.cpu.op_class::InstPrefetch                   0      0.00%    100.00% # Class of executed instruction
system.cpu.op_class::total                  129613594                       # Class of executed instruction
system.cpu.workload.numSyscalls                    34                       # Number of system calls
system.membus.snoop_filter.hit_multi_requests            0                       # Number of requests hitting in the snoop filter with multiple (>1) holders of the requested data.
system.membus.snoop_filter.hit_multi_snoops            0                       # Number of snoops hitting in the snoop filter with multiple (>1) holders of the requested data.
system.membus.snoop_filter.hit_single_requests           82                       # Number of requests hitting in the snoop filter with a single holder of the requested data.
system.membus.snoop_filter.hit_single_snoops            0                       # Number of snoops hitting in the snoop filter with a single holder of the requested data.
system.membus.snoop_filter.tot_requests          3445                       # Total number of requests made to the snoop filter.
system.membus.snoop_filter.tot_snoops               0                       # Total number of snoops made to the snoop filter.
system.tol2bus.snoop_filter.hit_multi_requests            1                       # Number of requests hitting in the snoop filter with multiple (>1) holders of the requested data.
system.tol2bus.snoop_filter.hit_multi_snoops            0                       # Number of snoops hitting in the snoop filter with multiple (>1) holders of the requested data.
system.tol2bus.snoop_filter.hit_single_requests        20427                       # Number of requests hitting in the snoop filter with a single holder of the requested data.
system.tol2bus.snoop_filter.hit_single_snoops          186                       # Number of snoops hitting in the snoop filter with a single holder of the requested data.
system.tol2bus.snoop_filter.tot_requests        42549                       # Total number of requests made to the snoop filter.
system.tol2bus.snoop_filter.tot_snoops            186                       # Total number of snoops made to the snoop filter.
system.membus.trans_dist::ReadResp               1550                       # Transaction distribution
system.membus.trans_dist::WritebackDirty            6                       # Transaction distribution
system.membus.trans_dist::CleanEvict               76                       # Transaction distribution
system.membus.trans_dist::ReadExReq              1813                       # Transaction distribution
system.membus.trans_dist::ReadExResp             1813                       # Transaction distribution
system.membus.trans_dist::ReadSharedReq          1550                       # Transaction distribution
system.membus.pkt_count_system.l2.mem_side::system.mem_ctrls.port         6808                       # Packet count per connected master and slave (bytes)
system.membus.pkt_count_system.l2.mem_side::total         6808                       # Packet count per connected master and slave (bytes)
system.membus.pkt_count::total                   6808                       # Packet count per connected master and slave (bytes)
system.membus.pkt_size_system.l2.mem_side::system.mem_ctrls.port       431232                       # Cumulative packet size per connected master and slave (bytes)
system.membus.pkt_size_system.l2.mem_side::total       431232                       # Cumulative packet size per connected master and slave (bytes)
system.membus.pkt_size::total                  431232                       # Cumulative packet size per connected master and slave (bytes)
system.membus.snoops                                0                       # Total snoops (count)
system.membus.snoopTraffic                          0                       # Total snoop traffic (bytes)
system.membus.snoop_fanout::samples              3363                       # Request fanout histogram
system.membus.snoop_fanout::mean                    0                       # Request fanout histogram
system.membus.snoop_fanout::stdev                   0                       # Request fanout histogram
system.membus.snoop_fanout::underflows              0      0.00%      0.00% # Request fanout histogram
system.membus.snoop_fanout::0                    3363    100.00%    100.00% # Request fanout histogram
system.membus.snoop_fanout::1                       0      0.00%    100.00% # Request fanout histogram
system.membus.snoop_fanout::overflows               0      0.00%    100.00% # Request fanout histogram
system.membus.snoop_fanout::min_value               0                       # Request fanout histogram
system.membus.snoop_fanout::max_value               0                       # Request fanout histogram
system.membus.snoop_fanout::total                3363                       # Request fanout histogram
system.membus.reqLayer2.occupancy             3601000                       # Layer occupancy (ticks)
system.membus.reqLayer2.utilization               0.0                       # Layer utilization (%)
system.membus.respLayer1.occupancy           31477000                       # Layer occupancy (ticks)
system.membus.respLayer1.utilization              0.0                       # Layer utilization (%)
system.membus.power_state.pwrStateResidencyTicks::UNDEFINED 190663679500                       # Cumulative time (in ticks) in various power states
system.tol2bus.trans_dist::ReadResp              7989                       # Transaction distribution
system.tol2bus.trans_dist::WritebackDirty        19646                       # Transaction distribution
system.tol2bus.trans_dist::WritebackClean          128                       # Transaction distribution
system.tol2bus.trans_dist::CleanEvict             884                       # Transaction distribution
system.tol2bus.trans_dist::ReadExReq            14133                       # Transaction distribution
system.tol2bus.trans_dist::ReadExResp           14133                       # Transaction distribution
system.tol2bus.trans_dist::ReadCleanReq           799                       # Transaction distribution
system.tol2bus.trans_dist::ReadSharedReq         7190                       # Transaction distribution
system.tol2bus.pkt_count_system.cpu.icache.mem_side::system.l2.cpu_side         1726                       # Packet count per connected master and slave (bytes)
system.tol2bus.pkt_count_system.cpu.dcache.mem_side::system.l2.cpu_side        62945                       # Packet count per connected master and slave (bytes)
system.tol2bus.pkt_count::total                 64671                       # Packet count per connected master and slave (bytes)
system.tol2bus.pkt_size_system.cpu.icache.mem_side::system.l2.cpu_side       118656                       # Cumulative packet size per connected master and slave (bytes)
system.tol2bus.pkt_size_system.cpu.dcache.mem_side::system.l2.cpu_side      5243264                       # Cumulative packet size per connected master and slave (bytes)
system.tol2bus.pkt_size::total                5361920                       # Cumulative packet size per connected master and slave (bytes)
system.tol2bus.snoops                             231                       # Total snoops (count)
system.tol2bus.snoopTraffic                       768                       # Total snoop traffic (bytes)
system.tol2bus.snoop_fanout::samples            22353                       # Request fanout histogram
system.tol2bus.snoop_fanout::mean            0.008366                       # Request fanout histogram
system.tol2bus.snoop_fanout::stdev           0.091083                       # Request fanout histogram
system.tol2bus.snoop_fanout::underflows             0      0.00%      0.00% # Request fanout histogram
system.tol2bus.snoop_fanout::0                  22166     99.16%     99.16% # Request fanout histogram
system.tol2bus.snoop_fanout::1                    187      0.84%    100.00% # Request fanout histogram
system.tol2bus.snoop_fanout::2                      0      0.00%    100.00% # Request fanout histogram
system.tol2bus.snoop_fanout::3                      0      0.00%    100.00% # Request fanout histogram
system.tol2bus.snoop_fanout::4                      0      0.00%    100.00% # Request fanout histogram
system.tol2bus.snoop_fanout::overflows              0      0.00%    100.00% # Request fanout histogram
system.tol2bus.snoop_fanout::min_value              0                       # Request fanout histogram
system.tol2bus.snoop_fanout::max_value              1                       # Request fanout histogram
system.tol2bus.snoop_fanout::total              22353                       # Request fanout histogram
system.tol2bus.reqLayer0.occupancy           60810500                       # Layer occupancy (ticks)
system.tol2bus.reqLayer0.utilization              0.0                       # Layer utilization (%)
system.tol2bus.respLayer1.occupancy          53307500                       # Layer occupancy (ticks)
system.tol2bus.respLayer1.utilization             0.0                       # Layer utilization (%)
system.tol2bus.respLayer0.occupancy           1997500                       # Layer occupancy (ticks)
system.tol2bus.respLayer0.utilization             0.0                       # Layer utilization (%)
system.tol2bus.power_state.pwrStateResidencyTicks::UNDEFINED 190663679500                       # Cumulative time (in ticks) in various power states
system.voltage_domain.voltage                       1                       # Voltage in Volts
system.clk_domain.clock                          1000                       # Clock period in ticks
system.l2.demand_hits::.cpu.inst                    9                       # number of demand (read+write) hits
system.l2.demand_hits::.cpu.data                18750                       # number of demand (read+write) hits
system.l2.demand_hits::total                    18759                       # number of demand (read+write) hits
system.l2.overall_hits::.cpu.inst                   9                       # number of overall hits
system.l2.overall_hits::.cpu.data               18750                       # number of overall hits
system.l2.overall_hits::total                   18759                       # number of overall hits
system.l2.demand_misses::.cpu.inst                790                       # number of demand (read+write) misses
system.l2.demand_misses::.cpu.data               2573                       # number of demand (read+write) misses
system.l2.demand_misses::total                   3363                       # number of demand (read+write) misses
system.l2.overall_misses::.cpu.inst               790                       # number of overall misses
system.l2.overall_misses::.cpu.data              2573                       # number of overall misses
system.l2.overall_misses::total                  3363                       # number of overall misses
system.l2.demand_miss_latency::.cpu.inst     65290500                       # number of demand (read+write) miss cycles
system.l2.demand_miss_latency::.cpu.data    220352500                       # number of demand (read+write) miss cycles
system.l2.demand_miss_latency::total        285643000                       # number of demand (read+write) miss cycles
system.l2.overall_miss_latency::.cpu.inst     65290500                       # number of overall miss cycles
system.l2.overall_miss_latency::.cpu.data    220352500                       # number of overall miss cycles
system.l2.overall_miss_latency::total       285643000                       # number of overall miss cycles
system.l2.demand_accesses::.cpu.inst              799                       # number of demand (read+write) accesses
system.l2.demand_accesses::.cpu.data            21323                       # number of demand (read+write) accesses
system.l2.demand_accesses::total                22122                       # number of demand (read+write) accesses
system.l2.overall_accesses::.cpu.inst             799                       # number of overall (read+write) accesses
system.l2.overall_accesses::.cpu.data           21323                       # number of overall (read+write) accesses
system.l2.overall_accesses::total               22122                       # number of overall (read+write) accesses
system.l2.demand_miss_rate::.cpu.inst        0.988736                       # miss rate for demand accesses
system.l2.demand_miss_rate::.cpu.data        0.120668                       # miss rate for demand accesses
system.l2.demand_miss_rate::total            0.152021                       # miss rate for demand accesses
system.l2.overall_miss_rate::.cpu.inst       0.988736                       # miss rate for overall accesses
system.l2.overall_miss_rate::.cpu.data       0.120668                       # miss rate for overall accesses
system.l2.overall_miss_rate::total           0.152021                       # miss rate for overall accesses
system.l2.demand_avg_miss_latency::.cpu.inst 82646.202532                       # average overall miss latency
system.l2.demand_avg_miss_latency::.cpu.data 85640.303148                       # average overall miss latency
system.l2.demand_avg_miss_latency::total 84936.961047                       # average overall miss latency
system.l2.overall_avg_miss_latency::.cpu.inst 82646.202532                       # average overall miss latency
system.l2.overall_avg_miss_latency::.cpu.data 85640.303148                       # average overall miss latency
system.l2.overall_avg_miss_latency::total 84936.961047                       # average overall miss latency
system.l2.blocked_cycles::no_mshrs                  0                       # number of cycles access was blocked
system.l2.blocked_cycles::no_targets                0                       # number of cycles access was blocked
system.l2.blocked::no_mshrs                         0                       # number of cycles access was blocked
system.l2.blocked::no_targets                       0                       # number of cycles access was blocked
system.l2.avg_blocked_cycles::no_mshrs            nan                       # average number of cycles each access was blocked
system.l2.avg_blocked_cycles::no_targets          nan                       # average number of cycles each access was blocked
system.l2.writebacks::.writebacks                   6                       # number of writebacks
system.l2.writebacks::total                         6                       # number of writebacks
system.l2.demand_mshr_misses::.cpu.inst           790                       # number of demand (read+write) MSHR misses
system.l2.demand_mshr_misses::.cpu.data          2573                       # number of demand (read+write) MSHR misses
system.l2.demand_mshr_misses::total              3363                       # number of demand (read+write) MSHR misses
system.l2.overall_mshr_misses::.cpu.inst          790                       # number of overall MSHR misses
system.l2.overall_mshr_misses::.cpu.data         2573                       # number of overall MSHR misses
system.l2.overall_mshr_misses::total             3363                       # number of overall MSHR misses
system.l2.demand_mshr_miss_latency::.cpu.inst     57390500                       # number of demand (read+write) MSHR miss cycles
system.l2.demand_mshr_miss_latency::.cpu.data    194622500                       # number of demand (read+write) MSHR miss cycles
system.l2.demand_mshr_miss_latency::total    252013000                       # number of demand (read+write) MSHR miss cycles
system.l2.overall_mshr_miss_latency::.cpu.inst     57390500                       # number of overall MSHR miss cycles
system.l2.overall_mshr_miss_latency::.cpu.data    194622500                       # number of overall MSHR miss cycles
system.l2.overall_mshr_miss_latency::total    252013000                       # number of overall MSHR miss cycles
system.l2.demand_mshr_miss_rate::.cpu.inst     0.988736                       # mshr miss rate for demand accesses
system.l2.demand_mshr_miss_rate::.cpu.data     0.120668                       # mshr miss rate for demand accesses
system.l2.demand_mshr_miss_rate::total       0.152021                       # mshr miss rate for demand accesses
system.l2.overall_mshr_miss_rate::.cpu.inst     0.988736                       # mshr miss rate for overall accesses
system.l2.overall_mshr_miss_rate::.cpu.data     0.120668                       # mshr miss rate for overall accesses
system.l2.overall_mshr_miss_rate::total      0.152021                       # mshr miss rate for overall accesses
system.l2.demand_avg_mshr_miss_latency::.cpu.inst 72646.202532                       # average overall mshr miss latency
system.l2.demand_avg_mshr_miss_latency::.cpu.data 75640.303148                       # average overall mshr miss latency
system.l2.demand_avg_mshr_miss_latency::total 74936.961047                       # average overall mshr miss latency
system.l2.overall_avg_mshr_miss_latency::.cpu.inst 72646.202532                       # average overall mshr miss latency
system.l2.overall_avg_mshr_miss_latency::.cpu.data 75640.303148                       # average overall mshr miss latency
system.l2.overall_avg_mshr_miss_latency::total 74936.961047                       # average overall mshr miss latency
system.l2.replacements                            231                       # number of replacements
system.l2.WritebackDirty_hits::.writebacks        19640                       # number of WritebackDirty hits
system.l2.WritebackDirty_hits::total            19640                       # number of WritebackDirty hits
system.l2.WritebackDirty_accesses::.writebacks        19640                       # number of WritebackDirty accesses(hits+misses)
system.l2.WritebackDirty_accesses::total        19640                       # number of WritebackDirty accesses(hits+misses)
system.l2.WritebackClean_hits::.writebacks          128                       # number of WritebackClean hits
system.l2.WritebackClean_hits::total              128                       # number of WritebackClean hits
system.l2.WritebackClean_accesses::.writebacks          128                       # number of WritebackClean accesses(hits+misses)
system.l2.WritebackClean_accesses::total          128                       # number of WritebackClean accesses(hits+misses)
system.l2.CleanEvict_mshr_misses::.writebacks           37                       # number of CleanEvict MSHR misses
system.l2.CleanEvict_mshr_misses::total            37                       # number of CleanEvict MSHR misses
system.l2.CleanEvict_mshr_miss_rate::.writebacks          inf                       # mshr miss rate for CleanEvict accesses
system.l2.CleanEvict_mshr_miss_rate::total          inf                       # mshr miss rate for CleanEvict accesses
system.l2.ReadExReq_hits::.cpu.data             12320                       # number of ReadExReq hits
system.l2.ReadExReq_hits::total                 12320                       # number of ReadExReq hits
system.l2.ReadExReq_misses::.cpu.data            1813                       # number of ReadExReq misses
system.l2.ReadExReq_misses::total                1813                       # number of ReadExReq misses
system.l2.ReadExReq_miss_latency::.cpu.data    156696000                       # number of ReadExReq miss cycles
system.l2.ReadExReq_miss_latency::total     156696000                       # number of ReadExReq miss cycles
system.l2.ReadExReq_accesses::.cpu.data         14133                       # number of ReadExReq accesses(hits+misses)
system.l2.ReadExReq_accesses::total             14133                       # number of ReadExReq accesses(hits+misses)
system.l2.ReadExReq_miss_rate::.cpu.data     0.128281                       # miss rate for ReadExReq accesses
system.l2.ReadExReq_miss_rate::total         0.128281                       # miss rate for ReadExReq accesses
system.l2.ReadExReq_avg_miss_latency::.cpu.data 86429.123001                       # average ReadExReq miss latency
system.l2.ReadExReq_avg_miss_latency::total 86429.123001                       # average ReadExReq miss latency
system.l2.ReadExReq_mshr_misses::.cpu.data         1813                       # number of ReadExReq MSHR misses
system.l2.ReadExReq_mshr_misses::total           1813                       # number of ReadExReq MSHR misses
system.l2.ReadExReq_mshr_miss_latency::.cpu.data    138566000                       # number of ReadExReq MSHR miss cycles
system.l2.ReadExReq_mshr_miss_latency::total    138566000                       # number of ReadExReq MSHR miss cycles
system.l2.ReadExReq_mshr_miss_rate::.cpu.data     0.128281                       # mshr miss rate for ReadExReq accesses
system.l2.ReadExReq_mshr_miss_rate::total     0.128281                       # mshr miss rate for ReadExReq accesses
system.l2.ReadExReq_avg_mshr_miss_latency::.cpu.data 76429.123001                       # average ReadExReq mshr miss latency
system.l2.ReadExReq_avg_mshr_miss_latency::total 76429.123001                       # average ReadExReq mshr miss latency
system.l2.ReadCleanReq_hits::.cpu.inst              9                       # number of ReadCleanReq hits
system.l2.ReadCleanReq_hits::total                  9                       # number of ReadCleanReq hits
system.l2.ReadCleanReq_misses::.cpu.inst          790                       # number of ReadCleanReq misses
system.l2.ReadCleanReq_misses::total              790                       # number of ReadCleanReq misses
system.l2.ReadCleanReq_miss_latency::.cpu.inst     65290500                       # number of ReadCleanReq miss cycles
system.l2.ReadCleanReq_miss_latency::total     65290500                       # number of ReadCleanReq miss cycles
system.l2.ReadCleanReq_accesses::.cpu.inst          799                       # number of ReadCleanReq accesses(hits+misses)
system.l2.ReadCleanReq_accesses::total            799                       # number of ReadCleanReq accesses(hits+misses)
system.l2.ReadCleanReq_miss_rate::.cpu.inst     0.988736                       # miss rate for ReadCleanReq accesses
system.l2.ReadCleanReq_miss_rate::total      0.988736                       # miss rate for ReadCleanReq accesses
system.l2.ReadCleanReq_avg_miss_latency::.cpu.inst 82646.202532                       # average ReadCleanReq miss latency
system.l2.ReadCleanReq_avg_miss_latency::total 82646.202532                       # average ReadCleanReq miss latency
system.l2.ReadCleanReq_mshr_misses::.cpu.inst          790                       # number of ReadCleanReq MSHR misses
system.l2.ReadCleanReq_mshr_misses::total          790                       # number of ReadCleanReq MSHR misses
system.l2.ReadCleanReq_mshr_miss_latency::.cpu.inst     57390500                       # number of ReadCleanReq MSHR miss cycles
system.l2.ReadCleanReq_mshr_miss_latency::total     57390500                       # number of ReadCleanReq MSHR miss cycles
system.l2.ReadCleanReq_mshr_miss_rate::.cpu.inst     0.988736                       # mshr miss rate for ReadCleanReq accesses
system.l2.ReadCleanReq_mshr_miss_rate::total     0.988736                       # mshr miss rate for ReadCleanReq accesses
system.l2.ReadCleanReq_avg_mshr_miss_latency::.cpu.inst 72646.202532                       # average ReadCleanReq mshr miss latency
system.l2.ReadCleanReq_avg_mshr_miss_latency::total 72646.202532                       # average ReadCleanReq mshr miss latency
system.l2.ReadSharedReq_hits::.cpu.data          6430                       # number of ReadSharedReq hits
system.l2.ReadSharedReq_hits::total              6430                       # number of ReadSharedReq hits
system.l2.ReadSharedReq_misses::.cpu.data          760                       # number of ReadSharedReq misses
system.l2.ReadSharedReq_misses::total             760                       # number of ReadSharedReq misses
system.l2.ReadSharedReq_miss_latency::.cpu.data     63656500                       # number of ReadSharedReq miss cycles
system.l2.ReadSharedReq_miss_latency::total     63656500                       # number of ReadSharedReq miss cycles
system.l2.ReadSharedReq_accesses::.cpu.data         7190                       # number of ReadSharedReq accesses(hits+misses)
system.l2.ReadSharedReq_accesses::total          7190                       # number of ReadSharedReq accesses(hits+misses)
system.l2.ReadSharedReq_miss_rate::.cpu.data     0.105702                       # miss rate for ReadSharedReq accesses
system.l2.ReadSharedReq_miss_rate::total     0.105702                       # miss rate for ReadSharedReq accesses
system.l2.ReadSharedReq_avg_miss_latency::.cpu.data 83758.552632                       # average ReadSharedReq miss latency
system.l2.ReadSharedReq_avg_miss_latency::total 83758.552632                       # average ReadSharedReq miss latency
system.l2.ReadSharedReq_mshr_misses::.cpu.data          760                       # number of ReadSharedReq MSHR misses
system.l2.ReadSharedReq_mshr_misses::total          760                       # number of ReadSharedReq MSHR misses
system.l2.ReadSharedReq_mshr_miss_latency::.cpu.data     56056500                       # number of ReadSharedReq MSHR miss cycles
system.l2.ReadSharedReq_mshr_miss_latency::total     56056500                       # number of ReadSharedReq MSHR miss cycles
system.l2.ReadSharedReq_mshr_miss_rate::.cpu.data     0.105702                       # mshr miss rate for ReadSharedReq accesses
system.l2.ReadSharedReq_mshr_miss_rate::total     0.105702                       # mshr miss rate for ReadSharedReq accesses
system.l2.ReadSharedReq_avg_mshr_miss_latency::.cpu.data 73758.552632                       # average ReadSharedReq mshr miss latency
system.l2.ReadSharedReq_avg_mshr_miss_latency::total 73758.552632                       # average ReadSharedReq mshr miss latency
system.l2.power_state.pwrStateResidencyTicks::UNDEFINED 190663679500                       # Cumulative time (in ticks) in various power states
system.l2.tags.tagsinuse                  2710.370620                       # Cycle average of tags in use
system.l2.tags.total_refs                       42511                       # Total number of references to valid blocks.
system.l2.tags.sampled_refs                      3392                       # Sample count of references to valid blocks.
system.l2.tags.avg_refs                     12.532724                       # Average number of references to valid blocks.
system.l2.tags.warmup_cycle                     82000                       # Cycle when the warmup percentage was hit.
system.l2.tags.occ_blocks::.writebacks      26.739820                       # Average occupied blocks per requestor
system.l2.tags.occ_blocks::.cpu.inst       650.639277                       # Average occupied blocks per requestor
system.l2.tags.occ_blocks::.cpu.data      2032.991523                       # Average occupied blocks per requestor
system.l2.tags.occ_percent::.writebacks      0.003264                       # Average percentage of cache occupancy
system.l2.tags.occ_percent::.cpu.inst        0.079424                       # Average percentage of cache occupancy
system.l2.tags.occ_percent::.cpu.data        0.248168                       # Average percentage of cache occupancy
system.l2.tags.occ_percent::total            0.330856                       # Average percentage of cache occupancy
system.l2.tags.occ_task_id_blocks::1024          3161                       # Occupied blocks per task id
system.l2.tags.age_task_id_blocks_1024::4         3161                       # Occupied blocks per task id
system.l2.tags.occ_task_id_percent::1024     0.385864                       # Percentage of cache occupancy per task id
system.l2.tags.tag_accesses                     45940                       # Number of tag accesses
system.l2.tags.data_accesses                    45940                       # Number of data accesses
system.l2.tags.power_state.pwrStateResidencyTicks::UNDEFINED 190663679500                       # Cumulative time (in ticks) in various power states
system.cpu_voltage_domain.voltage                   1                       # Voltage in Volts
system.mem_ctrls.bytes_read::.cpu.inst         101120                       # Number of bytes read from this memory
system.mem_ctrls.bytes_read::.cpu.data         329344                       # Number of bytes read from this memory
system.mem_ctrls.bytes_read::total             430464                       # Number of bytes read from this memory
system.mem_ctrls.bytes_inst_read::.cpu.inst       101120                       # Number of instructions bytes read from this memory
system.mem_ctrls.bytes_inst_read::total        101120                       # Number of instructions bytes read from this memory
system.mem_ctrls.bytes_written::.writebacks          768                       # Number of bytes written to this memory
system.mem_ctrls.bytes_written::total             768                       # Number of bytes written to this memory
system.mem_ctrls.num_reads::.cpu.inst             790                       # Number of read requests responded to by this memory
system.mem_ctrls.num_reads::.cpu.data            2573                       # Number of read requests responded to by this memory
system.mem_ctrls.num_reads::total                3363                       # Number of read requests responded to by this memory
system.mem_ctrls.num_writes::.writebacks            6                       # Number of write requests responded to by this memory
system.mem_ctrls.num_writes::total                  6                       # Number of write requests responded to by this memory
system.mem_ctrls.bw_read::.cpu.inst            530358                       # Total read bandwidth from this memory (bytes/s)
system.mem_ctrls.bw_read::.cpu.data           1727356                       # Total read bandwidth from this memory (bytes/s)
system.mem_ctrls.bw_read::total               2257714                       # Total read bandwidth from this memory (bytes/s)
system.mem_ctrls.bw_inst_read::.cpu.inst       530358                       # Instruction read bandwidth from this memory (bytes/s)
system.mem_ctrls.bw_inst_read::total           530358                       # Instruction read bandwidth from this memory (bytes/s)
system.mem_ctrls.bw_write::.writebacks           4028                       # Write bandwidth from this memory (bytes/s)
system.mem_ctrls.bw_write::total                 4028                       # Write bandwidth from this memory (bytes/s)
system.mem_ctrls.bw_total::.writebacks           4028                       # Total bandwidth to/from this memory (bytes/s)
system.mem_ctrls.bw_total::.cpu.inst           530358                       # Total bandwidth to/from this memory (bytes/s)
system.mem_ctrls.bw_total::.cpu.data          1727356                       # Total bandwidth to/from this memory (bytes/s)
system.mem_ctrls.bw_total::total              2261742                       # Total bandwidth to/from this memory (bytes/s)
system.mem_ctrls.avgPriority_.writebacks::samples        12.00                       # Average QoS priority value for accepted requests
system.mem_ctrls.avgPriority_.cpu.inst::samples      1580.00                       # Average QoS priority value for accepted requests
system.mem_ctrls.avgPriority_.cpu.data::samples      5140.00                       # Average QoS priority value for accepted requests
system.mem_ctrls.priorityMinLatency      0.000000018750                       # per QoS priority minimum request to response latency (s)
system.mem_ctrls.priorityMaxLatency      0.000000560000                       # per QoS priority maximum request to response latency (s)
system.mem_ctrls.numReadWriteTurnArounds            0                       # Number of turnarounds from READ to WRITE
system.mem_ctrls.numWriteReadTurnArounds            0                       # Number of turnarounds from WRITE to READ
system.mem_ctrls.numStayReadState               59059                       # Number of times bus staying in READ state
system.mem_ctrls.numStayWriteState                  0                       # Number of times bus staying in WRITE state
system.mem_ctrls.readReqs                        3363                       # Number of read requests accepted
system.mem_ctrls.writeReqs                          6                       # Number of write requests accepted
system.mem_ctrls.readBursts                      6726                       # Number of DRAM read bursts, including those serviced by the write queue
system.mem_ctrls.writeBursts                       12                       # Number of DRAM write bursts, including those merged in the write queue
system.mem_ctrls.servicedByWrQ                      6                       # Number of DRAM read bursts serviced by the write queue
system.mem_ctrls.mergedWrBursts                     0                       # Number of DRAM write bursts merged with an existing one
system.mem_ctrls.neitherReadNorWriteReqs            0                       # Number of requests that are neither read nor write
system.mem_ctrls.perBankRdBursts::0               330                       # Per bank write bursts
system.mem_ctrls.perBankRdBursts::1               370                       # Per bank write bursts
system.mem_ctrls.perBankRdBursts::2               452                       # Per bank write bursts
system.mem_ctrls.perBankRdBursts::3               340                       # Per bank write bursts
system.mem_ctrls.perBankRdBursts::4               508                       # Per bank write bursts
system.mem_ctrls.perBankRdBursts::5               444                       # Per bank write bursts
system.mem_ctrls.perBankRdBursts::6               346                       # Per bank write bursts
system.mem_ctrls.perBankRdBursts::7               434                       # Per bank write bursts
system.mem_ctrls.perBankRdBursts::8               606                       # Per bank write bursts
system.mem_ctrls.perBankRdBursts::9               548                       # Per bank write bursts
system.mem_ctrls.perBankRdBursts::10              470                       # Per bank write bursts
system.mem_ctrls.perBankRdBursts::11              494                       # Per bank write bursts
system.mem_ctrls.perBankRdBursts::12              388                       # Per bank write bursts
system.mem_ctrls.perBankRdBursts::13              334                       # Per bank write bursts
system.mem_ctrls.perBankRdBursts::14              312                       # Per bank write bursts
system.mem_ctrls.perBankRdBursts::15              344                       # Per bank write bursts
system.mem_ctrls.perBankWrBursts::0                 0                       # Per bank write bursts
system.mem_ctrls.perBankWrBursts::1                 0                       # Per bank write bursts
system.mem_ctrls.perBankWrBursts::2                 0                       # Per bank write bursts
system.mem_ctrls.perBankWrBursts::3                 0                       # Per bank write bursts
system.mem_ctrls.perBankWrBursts::4                 0                       # Per bank write bursts
system.mem_ctrls.perBankWrBursts::5                 0                       # Per bank write bursts
system.mem_ctrls.perBankWrBursts::6                 0                       # Per bank write bursts
system.mem_ctrls.perBankWrBursts::7                 0                       # Per bank write bursts
system.mem_ctrls.perBankWrBursts::8                 0                       # Per bank write bursts
system.mem_ctrls.perBankWrBursts::9                 0                       # Per bank write bursts
system.mem_ctrls.perBankWrBursts::10                0                       # Per bank write bursts
system.mem_ctrls.perBankWrBursts::11                0                       # Per bank write bursts
system.mem_ctrls.perBankWrBursts::12                0                       # Per bank write bursts
system.mem_ctrls.perBankWrBursts::13                0                       # Per bank write bursts
system.mem_ctrls.perBankWrBursts::14                0                       # Per bank write bursts
system.mem_ctrls.perBankWrBursts::15                0                       # Per bank write bursts
system.mem_ctrls.avgRdQLen                       2.00                       # Average read queue length when enqueuing
system.mem_ctrls.avgWrQLen                      11.25                       # Average write queue length when enqueuing
system.mem_ctrls.totQLat                     86248000                       # Total ticks spent queuing
system.mem_ctrls.totBusLat                   33600000                       # Total ticks spent in databus transfers
system.mem_ctrls.totMemAccLat               212248000                       # Total ticks spent from burst creation until serviced by the DRAM
system.mem_ctrls.avgQLat                     12834.52                       # Average queueing delay per DRAM burst
system.mem_ctrls.avgBusLat                    5000.00                       # Average bus latency per DRAM burst
system.mem_ctrls.avgMemAccLat                31584.52                       # Average memory access latency per DRAM burst
system.mem_ctrls.numRdRetry                         0                       # Number of times read queue was full causing retry
system.mem_ctrls.numWrRetry                         0                       # Number of times write queue was full causing retry
system.mem_ctrls.readRowHits                     5341                       # Number of row buffer hits during reads
system.mem_ctrls.writeRowHits                       0                       # Number of row buffer hits during writes
system.mem_ctrls.readRowHitRate                 79.48                       # Row buffer hit rate for reads
system.mem_ctrls.writeRowHitRate                 0.00                       # Row buffer hit rate for writes
system.mem_ctrls.readPktSize::0                     0                       # Read request sizes (log2)
system.mem_ctrls.readPktSize::1                     0                       # Read request sizes (log2)
system.mem_ctrls.readPktSize::2                     0                       # Read request sizes (log2)
system.mem_ctrls.readPktSize::3                     0                       # Read request sizes (log2)
system.mem_ctrls.readPktSize::4                     0                       # Read request sizes (log2)
system.mem_ctrls.readPktSize::5                     0                       # Read request sizes (log2)
system.mem_ctrls.readPktSize::6                  6726                       # Read request sizes (log2)
system.mem_ctrls.writePktSize::0                    0                       # Write request sizes (log2)
system.mem_ctrls.writePktSize::1                    0                       # Write request sizes (log2)
system.mem_ctrls.writePktSize::2                    0                       # Write request sizes (log2)
system.mem_ctrls.writePktSize::3                    0                       # Write request sizes (log2)
system.mem_ctrls.writePktSize::4                    0                       # Write request sizes (log2)
system.mem_ctrls.writePktSize::5                    0                       # Write request sizes (log2)
system.mem_ctrls.writePktSize::6                   12                       # Write request sizes (log2)
system.mem_ctrls.rdQLenPdf::0                    3303                       # What read queue length does an incoming req see
system.mem_ctrls.rdQLenPdf::1                    3303                       # What read queue length does an incoming req see
system.mem_ctrls.rdQLenPdf::2                      49                       # What read queue length does an incoming req see
system.mem_ctrls.rdQLenPdf::3                      50                       # What read queue length does an incoming req see
system.mem_ctrls.rdQLenPdf::4                       8                       # What read queue length does an incoming req see
system.mem_ctrls.rdQLenPdf::5                       7                       # What read queue length does an incoming req see
system.mem_ctrls.rdQLenPdf::6                       0                       # What read queue length does an incoming req see
system.mem_ctrls.rdQLenPdf::7                       0                       # What read queue length does an incoming req see
system.mem_ctrls.rdQLenPdf::8                       0                       # What read queue length does an incoming req see
system.mem_ctrls.rdQLenPdf::9                       0                       # What read queue length does an incoming req see
system.mem_ctrls.rdQLenPdf::10                      0                       # What read queue length does an incoming req see
system.mem_ctrls.rdQLenPdf::11                      0                       # What read queue length does an incoming req see
system.mem_ctrls.rdQLenPdf::12                      0                       # What read queue length does an incoming req see
system.mem_ctrls.rdQLenPdf::13                      0                       # What read queue length does an incoming req see
system.mem_ctrls.rdQLenPdf::14                      0                       # What read queue length does an incoming req see
system.mem_ctrls.rdQLenPdf::15                      0                       # What read queue length does an incoming req see
system.mem_ctrls.rdQLenPdf::16                      0                       # What read queue length does an incoming req see
system.mem_ctrls.rdQLenPdf::17                      0                       # What read queue length does an incoming req see
system.mem_ctrls.rdQLenPdf::18                      0                       # What read queue length does an incoming req see
system.mem_ctrls.rdQLenPdf::19                      0                       # What read queue length does an incoming req see
system.mem_ctrls.rdQLenPdf::20                      0                       # What read queue length does an incoming req see
system.mem_ctrls.rdQLenPdf::21                      0                       # What read queue length does an incoming req see
system.mem_ctrls.rdQLenPdf::22                      0                       # What read queue length does an incoming req see
system.mem_ctrls.rdQLenPdf::23                      0                       # What read queue length does an incoming req see
system.mem_ctrls.rdQLenPdf::24                      0                       # What read queue length does an incoming req see
system.mem_ctrls.rdQLenPdf::25                      0                       # What read queue length does an incoming req see
system.mem_ctrls.rdQLenPdf::26                      0                       # What read queue length does an incoming req see
system.mem_ctrls.rdQLenPdf::27                      0                       # What read queue length does an incoming req see
system.mem_ctrls.rdQLenPdf::28                      0                       # What read queue length does an incoming req see
system.mem_ctrls.rdQLenPdf::29                      0                       # What read queue length does an incoming req see
system.mem_ctrls.rdQLenPdf::30                      0                       # What read queue length does an incoming req see
system.mem_ctrls.rdQLenPdf::31                      0                       # What read queue length does an incoming req see
system.mem_ctrls.wrQLenPdf::0                       1                       # What write queue length does an incoming req see
system.mem_ctrls.wrQLenPdf::1                       1                       # What write queue length does an incoming req see
system.mem_ctrls.wrQLenPdf::2                       1                       # What write queue length does an incoming req see
system.mem_ctrls.wrQLenPdf::3                       1                       # What write queue length does an incoming req see
system.mem_ctrls.wrQLenPdf::4                       1                       # What write queue length does an incoming req see
system.mem_ctrls.wrQLenPdf::5                       1                       # What write queue length does an incoming req see
system.mem_ctrls.wrQLenPdf::6                       1                       # What write queue length does an incoming req see
system.mem_ctrls.wrQLenPdf::7                       1                       # What write queue length does an incoming req see
system.mem_ctrls.wrQLenPdf::8                       1                       # What write queue length does an incoming req see
system.mem_ctrls.wrQLenPdf::9                       1                       # What write queue length does an incoming req see
system.mem_ctrls.wrQLenPdf::10                      1                       # What write queue length does an incoming req see
system.mem_ctrls.wrQLenPdf::11                      1                       # What write queue length does an incoming req see
system.mem_ctrls.wrQLenPdf::12                      0                       # What write queue length does an incoming req see
system.mem_ctrls.wrQLenPdf::13                      0                       # What write queue length does an incoming req see
system.mem_ctrls.wrQLenPdf::14                      0                       # What write queue length does an incoming req see
system.mem_ctrls.wrQLenPdf::15                      0                       # What write queue length does an incoming req see
system.mem_ctrls.wrQLenPdf::16                      0                       # What write queue length does an incoming req see
system.mem_ctrls.wrQLenPdf::17                      0                       # What write queue length does an incoming req see
system.mem_ctrls.wrQLenPdf::18                      0                       # What write queue length does an incoming req see
system.mem_ctrls.wrQLenPdf::19                      0                       # What write queue length does an incoming req see
system.mem_ctrls.wrQLenPdf::20                      0                       # What write queue length does an incoming req see
system.mem_ctrls.wrQLenPdf::21                      0                       # What write queue length does an incoming req see
system.mem_ctrls.wrQLenPdf::22                      0                       # What write queue length does an incoming req see
system.mem_ctrls.wrQLenPdf::23                      0                       # What write queue length does an incoming req see
system.mem_ctrls.wrQLenPdf::24                      0                       # What write queue length does an incoming req see
system.mem_ctrls.wrQLenPdf::25                      0                       # What write queue length does an incoming req see
system.mem_ctrls.wrQLenPdf::26                      0                       # What write queue length does an incoming req see
system.mem_ctrls.wrQLenPdf::27                      0                       # What write queue length does an incoming req see
system.mem_ctrls.wrQLenPdf::28                      0                       # What write queue length does an incoming req see
system.mem_ctrls.wrQLenPdf::29                      0                       # What write queue length does an incoming req see
system.mem_ctrls.wrQLenPdf::30                      0                       # What write queue length does an incoming req see
system.mem_ctrls.wrQLenPdf::31                      0                       # What write queue length does an incoming req see
system.mem_ctrls.wrQLenPdf::32                      0                       # What write queue length does an incoming req see
system.mem_ctrls.wrQLenPdf::33                      0                       # What write queue length does an incoming req see
system.mem_ctrls.wrQLenPdf::34                      0                       # What write queue length does an incoming req see
system.mem_ctrls.wrQLenPdf::35                      0                       # What write queue length does an incoming req see
system.mem_ctrls.wrQLenPdf::36                      0                       # What write queue length does an incoming req see
system.mem_ctrls.wrQLenPdf::37                      0                       # What write queue length does an incoming req see
system.mem_ctrls.wrQLenPdf::38                      0                       # What write queue length does an incoming req see
system.mem_ctrls.wrQLenPdf::39                      0                       # What write queue length does an incoming req see
system.mem_ctrls.wrQLenPdf::40                      0                       # What write queue length does an incoming req see
system.mem_ctrls.wrQLenPdf::41                      0                       # What write queue length does an incoming req see
system.mem_ctrls.wrQLenPdf::42                      0                       # What write queue length does an incoming req see
system.mem_ctrls.wrQLenPdf::43                      0                       # What write queue length does an incoming req see
system.mem_ctrls.wrQLenPdf::44                      0                       # What write queue length does an incoming req see
system.mem_ctrls.wrQLenPdf::45                      0                       # What write queue length does an incoming req see
system.mem_ctrls.wrQLenPdf::46                      0                       # What write queue length does an incoming req see
system.mem_ctrls.wrQLenPdf::47                      0                       # What write queue length does an incoming req see
system.mem_ctrls.wrQLenPdf::48                      0                       # What write queue length does an incoming req see
system.mem_ctrls.wrQLenPdf::49                      0                       # What write queue length does an incoming req see
system.mem_ctrls.wrQLenPdf::50                      0                       # What write queue length does an incoming req see
system.mem_ctrls.wrQLenPdf::51                      0                       # What write queue length does an incoming req see
system.mem_ctrls.wrQLenPdf::52                      0                       # What write queue length does an incoming req see
system.mem_ctrls.wrQLenPdf::53                      0                       # What write queue length does an incoming req see
system.mem_ctrls.wrQLenPdf::54                      0                       # What write queue length does an incoming req see
system.mem_ctrls.wrQLenPdf::55                      0                       # What write queue length does an incoming req see
system.mem_ctrls.wrQLenPdf::56                      0                       # What write queue length does an incoming req see
system.mem_ctrls.wrQLenPdf::57                      0                       # What write queue length does an incoming req see
system.mem_ctrls.wrQLenPdf::58                      0                       # What write queue length does an incoming req see
system.mem_ctrls.wrQLenPdf::59                      0                       # What write queue length does an incoming req see
system.mem_ctrls.wrQLenPdf::60                      0                       # What write queue length does an incoming req see
system.mem_ctrls.wrQLenPdf::61                      0                       # What write queue length does an incoming req see
system.mem_ctrls.wrQLenPdf::62                      0                       # What write queue length does an incoming req see
system.mem_ctrls.wrQLenPdf::63                      0                       # What write queue length does an incoming req see
system.mem_ctrls.bytesPerActivate::samples         1379                       # Bytes accessed per row activation
system.mem_ctrls.bytesPerActivate::mean    311.878173                       # Bytes accessed per row activation
system.mem_ctrls.bytesPerActivate::gmean   220.115788                       # Bytes accessed per row activation
system.mem_ctrls.bytesPerActivate::stdev   306.811132                       # Bytes accessed per row activation
system.mem_ctrls.bytesPerActivate::128-255          823     59.68%     59.68% # Bytes accessed per row activation
system.mem_ctrls.bytesPerActivate::256-383          215     15.59%     75.27% # Bytes accessed per row activation
system.mem_ctrls.bytesPerActivate::384-511           57      4.13%     79.41% # Bytes accessed per row activation
system.mem_ctrls.bytesPerActivate::512-639           44      3.19%     82.60% # Bytes accessed per row activation
system.mem_ctrls.bytesPerActivate::640-767           32      2.32%     84.92% # Bytes accessed per row activation
system.mem_ctrls.bytesPerActivate::768-895           26      1.89%     86.80% # Bytes accessed per row activation
system.mem_ctrls.bytesPerActivate::896-1023           12      0.87%     87.67% # Bytes accessed per row activation
system.mem_ctrls.bytesPerActivate::1024-1151          170     12.33%    100.00% # Bytes accessed per row activation
system.mem_ctrls.bytesPerActivate::total         1379                       # Bytes accessed per row activation
system.mem_ctrls.bytesReadDRAM                 430080                       # Total number of bytes read from DRAM
system.mem_ctrls.bytesReadWrQ                     384                       # Total number of bytes read from write queue
system.mem_ctrls.bytesWritten                       0                       # Total number of bytes written to DRAM
system.mem_ctrls.bytesReadSys                  430464                       # Total read bytes from the system interface side
system.mem_ctrls.bytesWrittenSys                  768                       # Total written bytes from the system interface side
system.mem_ctrls.avgRdBW                         2.26                       # Average DRAM read bandwidth in MiByte/s
system.mem_ctrls.avgWrBW                         0.00                       # Average achieved write bandwidth in MiByte/s
system.mem_ctrls.avgRdBWSys                      2.26                       # Average system read bandwidth in MiByte/s
system.mem_ctrls.avgWrBWSys                      0.00                       # Average system write bandwidth in MiByte/s
system.mem_ctrls.peakBW                      12800.00                       # Theoretical peak bandwidth in MiByte/s
system.mem_ctrls.busUtil                         0.02                       # Data bus utilization in percentage
system.mem_ctrls.busUtilRead                     0.02                       # Data bus utilization in percentage for reads
system.mem_ctrls.busUtilWrite                    0.00                       # Data bus utilization in percentage for writes
system.mem_ctrls.totGap                  172841193500                       # Total gap between requests
system.mem_ctrls.avgGap                   51303411.55                       # Average gap between requests
system.mem_ctrls.masterReadBytes::.cpu.inst       101120                       # Per-master bytes read from memory
system.mem_ctrls.masterReadBytes::.cpu.data       328960                       # Per-master bytes read from memory
system.mem_ctrls.masterReadRate::.cpu.inst 530357.959445548244                       # Per-master bytes read from memory rate (Bytes/sec)
system.mem_ctrls.masterReadRate::.cpu.data 1725341.716170960804                       # Per-master bytes read from memory rate (Bytes/sec)
system.mem_ctrls.masterReadAccesses::.cpu.inst         1580                       # Per-master read serviced memory accesses
system.mem_ctrls.masterReadAccesses::.cpu.data         5146                       # Per-master read serviced memory accesses
system.mem_ctrls.masterWriteAccesses::.writebacks           12                       # Per-master write serviced memory accesses
system.mem_ctrls.masterReadTotalLat::.cpu.inst     46265500                       # Per-master read total memory access latency
system.mem_ctrls.masterReadTotalLat::.cpu.data    165982500                       # Per-master read total memory access latency
system.mem_ctrls.masterReadAvgLat::.cpu.inst     29281.96                       # Per-master read average memory access latency
system.mem_ctrls.masterReadAvgLat::.cpu.data     32254.66                       # Per-master read average memory access latency
system.mem_ctrls.masterWriteAvgLat::.writebacks         0.00                       # Per-master write average memory access latency
system.mem_ctrls.pageHitRate                    79.34                       # Row buffer hit rate, read and write combined
system.mem_ctrls.rank1.actEnergy              4726680                       # Energy for activate commands per rank (pJ)
system.mem_ctrls.rank1.preEnergy              2512290                       # Energy for precharge commands per rank (pJ)
system.mem_ctrls.rank1.readEnergy            24961440                       # Energy for read commands per rank (pJ)
system.mem_ctrls.rank1.writeEnergy                  0                       # Energy for write commands per rank (pJ)
system.mem_ctrls.rank1.refreshEnergy     15050689680.000002                       # Energy for refresh commands per rank (pJ)
system.mem_ctrls.rank1.actBackEnergy       3504426690                       # Energy for active background per rank (pJ)
system.mem_ctrls.rank1.preBackEnergy      70263756960                       # Energy for precharge background per rank (pJ)
system.mem_ctrls.rank1.actPowerDownEnergy            0                       # Energy for active power-down per rank (pJ)
system.mem_ctrls.rank1.prePowerDownEnergy            0                       # Energy for precharge power-down per rank (pJ)
system.mem_ctrls.rank1.selfRefreshEnergy            0                       # Energy for self refresh per rank (pJ)
system.mem_ctrls.rank1.totalEnergy        88851073740                       # Total energy per rank (pJ)
system.mem_ctrls.rank1.averagePower        466.009436                       # Core power per rank (mW)
system.mem_ctrls.rank1.totalIdleTime                0                       # Total Idle time Per DRAM Rank
system.mem_ctrls.rank1.memoryStateTime::IDLE 182636139250                       # Time in different power states
system.mem_ctrls.rank1.memoryStateTime::REF   6366620000                       # Time in different power states
system.mem_ctrls.rank1.memoryStateTime::SREF            0                       # Time in different power states
system.mem_ctrls.rank1.memoryStateTime::PRE_PDN            0                       # Time in different power states
system.mem_ctrls.rank1.memoryStateTime::ACT   1660920250                       # Time in different power states
system.mem_ctrls.rank1.memoryStateTime::ACT_PDN            0                       # Time in different power states
system.mem_ctrls.rank0.actEnergy              5119380                       # Energy for activate commands per rank (pJ)
system.mem_ctrls.rank0.preEnergy              2721015                       # Energy for precharge commands per rank (pJ)
system.mem_ctrls.rank0.readEnergy            23019360                       # Energy for read commands per rank (pJ)
system.mem_ctrls.rank0.writeEnergy                  0                       # Energy for write commands per rank (pJ)
system.mem_ctrls.rank0.refreshEnergy     15050689680.000002                       # Energy for refresh commands per rank (pJ)
system.mem_ctrls.rank0.actBackEnergy       3591866400                       # Energy for active background per rank (pJ)
system.mem_ctrls.rank0.preBackEnergy      70190123520                       # Energy for precharge background per rank (pJ)
system.mem_ctrls.rank0.actPowerDownEnergy            0                       # Energy for active power-down per rank (pJ)
system.mem_ctrls.rank0.prePowerDownEnergy            0                       # Energy for precharge power-down per rank (pJ)
system.mem_ctrls.rank0.selfRefreshEnergy            0                       # Energy for self refresh per rank (pJ)
system.mem_ctrls.rank0.totalEnergy        88863539355                       # Total energy per rank (pJ)
system.mem_ctrls.rank0.averagePower        466.074816                       # Core power per rank (mW)
system.mem_ctrls.rank0.totalIdleTime                0                       # Total Idle time Per DRAM Rank
system.mem_ctrls.rank0.memoryStateTime::IDLE 182444468500                       # Time in different power states
system.mem_ctrls.rank0.memoryStateTime::REF   6366620000                       # Time in different power states
system.mem_ctrls.rank0.memoryStateTime::SREF            0                       # Time in different power states
system.mem_ctrls.rank0.memoryStateTime::PRE_PDN            0                       # Time in different power states
system.mem_ctrls.rank0.memoryStateTime::ACT   1852591000                       # Time in different power states
system.mem_ctrls.rank0.memoryStateTime::ACT_PDN            0                       # Time in different power states
system.mem_ctrls.power_state.pwrStateResidencyTicks::UNDEFINED 190663679500                       # Cumulative time (in ticks) in various power states
system.cpu_clk_domain.clock                       500                       # Clock period in ticks
system.cpu.icache.demand_hits::.cpu.inst    139164902                       # number of demand (read+write) hits
system.cpu.icache.demand_hits::total        139164902                       # number of demand (read+write) hits
system.cpu.icache.overall_hits::.cpu.inst    139164902                       # number of overall hits
system.cpu.icache.overall_hits::total       139164902                       # number of overall hits
system.cpu.icache.demand_misses::.cpu.inst          799                       # number of demand (read+write) misses
system.cpu.icache.demand_misses::total            799                       # number of demand (read+write) misses
system.cpu.icache.overall_misses::.cpu.inst          799                       # number of overall misses
system.cpu.icache.overall_misses::total           799                       # number of overall misses
system.cpu.icache.demand_miss_latency::.cpu.inst     67385500                       # number of demand (read+write) miss cycles
system.cpu.icache.demand_miss_latency::total     67385500                       # number of demand (read+write) miss cycles
system.cpu.icache.overall_miss_latency::.cpu.inst     67385500                       # number of overall miss cycles
system.cpu.icache.overall_miss_latency::total     67385500                       # number of overall miss cycles
system.cpu.icache.demand_accesses::.cpu.inst    139165701                       # number of demand (read+write) accesses
system.cpu.icache.demand_accesses::total    139165701                       # number of demand (read+write) accesses
system.cpu.icache.overall_accesses::.cpu.inst    139165701                       # number of overall (read+write) accesses
system.cpu.icache.overall_accesses::total    139165701                       # number of overall (read+write) accesses
system.cpu.icache.demand_miss_rate::.cpu.inst     0.000006                       # miss rate for demand accesses
system.cpu.icache.demand_miss_rate::total     0.000006                       # miss rate for demand accesses
system.cpu.icache.overall_miss_rate::.cpu.inst     0.000006                       # miss rate for overall accesses
system.cpu.icache.overall_miss_rate::total     0.000006                       # miss rate for overall accesses
system.cpu.icache.demand_avg_miss_latency::.cpu.inst 84337.296621                       # average overall miss latency
system.cpu.icache.demand_avg_miss_latency::total 84337.296621                       # average overall miss latency
system.cpu.icache.overall_avg_miss_latency::.cpu.inst 84337.296621                       # average overall miss latency
system.cpu.icache.overall_avg_miss_latency::total 84337.296621                       # average overall miss latency
system.cpu.icache.blocked_cycles::no_mshrs            0                       # number of cycles access was blocked
system.cpu.icache.blocked_cycles::no_targets            0                       # number of cycles access was blocked
system.cpu.icache.blocked::no_mshrs                 0                       # number of cycles access was blocked
system.cpu.icache.blocked::no_targets               0                       # number of cycles access was blocked
system.cpu.icache.avg_blocked_cycles::no_mshrs          nan                       # average number of cycles each access was blocked
system.cpu.icache.avg_blocked_cycles::no_targets          nan                       # average number of cycles each access was blocked
system.cpu.icache.writebacks::.writebacks          128                       # number of writebacks
system.cpu.icache.writebacks::total               128                       # number of writebacks
system.cpu.icache.demand_mshr_misses::.cpu.inst          799                       # number of demand (read+write) MSHR misses
system.cpu.icache.demand_mshr_misses::total          799                       # number of demand (read+write) MSHR misses
system.cpu.icache.overall_mshr_misses::.cpu.inst          799                       # number of overall MSHR misses
system.cpu.icache.overall_mshr_misses::total          799                       # number of overall MSHR misses
system.cpu.icache.demand_mshr_miss_latency::.cpu.inst     66586500                       # number of demand (read+write) MSHR miss cycles
system.cpu.icache.demand_mshr_miss_latency::total     66586500                       # number of demand (read+write) MSHR miss cycles
system.cpu.icache.overall_mshr_miss_latency::.cpu.inst     66586500                       # number of overall MSHR miss cycles
system.cpu.icache.overall_mshr_miss_latency::total     66586500                       # number of overall MSHR miss cycles
system.cpu.icache.demand_mshr_miss_rate::.cpu.inst     0.000006                       # mshr miss rate for demand accesses
system.cpu.icache.demand_mshr_miss_rate::total     0.000006                       # mshr miss rate for demand accesses
system.cpu.icache.overall_mshr_miss_rate::.cpu.inst     0.000006                       # mshr miss rate for overall accesses
system.cpu.icache.overall_mshr_miss_rate::total     0.000006                       # mshr miss rate for overall accesses
system.cpu.icache.demand_avg_mshr_miss_latency::.cpu.inst 83337.296621                       # average overall mshr miss latency
system.cpu.icache.demand_avg_mshr_miss_latency::total 83337.296621                       # average overall mshr miss latency
system.cpu.icache.overall_avg_mshr_miss_latency::.cpu.inst 83337.296621                       # average overall mshr miss latency
system.cpu.icache.overall_avg_mshr_miss_latency::total 83337.296621                       # average overall mshr miss latency
system.cpu.icache.replacements                    128                       # number of replacements
system.cpu.icache.ReadReq_hits::.cpu.inst    139164902                       # number of ReadReq hits
system.cpu.icache.ReadReq_hits::total       139164902                       # number of ReadReq hits
system.cpu.icache.ReadReq_misses::.cpu.inst          799                       # number of ReadReq misses
system.cpu.icache.ReadReq_misses::total           799                       # number of ReadReq misses
system.cpu.icache.ReadReq_miss_latency::.cpu.inst     67385500                       # number of ReadReq miss cycles
system.cpu.icache.ReadReq_miss_latency::total     67385500                       # number of ReadReq miss cycles
system.cpu.icache.ReadReq_accesses::.cpu.inst    139165701                       # number of ReadReq accesses(hits+misses)
system.cpu.icache.ReadReq_accesses::total    139165701                       # number of ReadReq accesses(hits+misses)
system.cpu.icache.ReadReq_miss_rate::.cpu.inst     0.000006                       # miss rate for ReadReq accesses
system.cpu.icache.ReadReq_miss_rate::total     0.000006                       # miss rate for ReadReq accesses
system.cpu.icache.ReadReq_avg_miss_latency::.cpu.inst 84337.296621                       # average ReadReq miss latency
system.cpu.icache.ReadReq_avg_miss_latency::total 84337.296621                       # average ReadReq miss latency
system.cpu.icache.ReadReq_mshr_misses::.cpu.inst          799                       # number of ReadReq MSHR misses
system.cpu.icache.ReadReq_mshr_misses::total          799                       # number of ReadReq MSHR misses
[...]
system.cpu.icache.tags.occ_task_id_blocks::1024          671                       # Occupied blocks per task id
system.cpu.icache.tags.age_task_id_blocks_1024::4          671                       # Occupied blocks per task id
system.cpu.icache.tags.occ_task_id_percent::1024     0.655273                       # Percentage of cache occupancy per task id
system.cpu.icache.tags.tag_accesses         278332201                       # Number of tag accesses
system.cpu.icache.tags.data_accesses        278332201                       # Number of data accesses
system.cpu.icache.tags.power_state.pwrStateResidencyTicks::UNDEFINED 190663679500                       # Cumulative time (in ticks) in various power states
system.cpu.dtb.walker.power_state.pwrStateResidencyTicks::UNDEFINED 190663679500                       # Cumulative time (in ticks) in various power states
system.cpu.interrupts.clk_domain.clock           8000                       # Clock period in ticks
system.cpu.itb_walker_cache.blocked_cycles::no_mshrs            0                       # number of cycles access was blocked
system.cpu.itb_walker_cache.blocked_cycles::no_targets            0                       # number of cycles access was blocked
system.cpu.itb_walker_cache.blocked::no_mshrs            0                       # number of cycles access was blocked
system.cpu.itb_walker_cache.blocked::no_targets            0                       # number of cycles access was blocked
system.cpu.itb_walker_cache.avg_blocked_cycles::no_mshrs          nan                       # average number of cycles each access was blocked
system.cpu.itb_walker_cache.avg_blocked_cycles::no_targets          nan                       # average number of cycles each access was blocked
system.cpu.itb_walker_cache.replacements            0                       # number of replacements
system.cpu.itb_walker_cache.power_state.pwrStateResidencyTicks::UNDEFINED 190663679500                       # Cumulative time (in ticks) in various power states
system.cpu.itb_walker_cache.tags.tagsinuse            0                       # Cycle average of tags in use
system.cpu.itb_walker_cache.tags.total_refs            0                       # Total number of references to valid blocks.
system.cpu.itb_walker_cache.tags.sampled_refs            0                       # Sample count of references to valid blocks.
system.cpu.itb_walker_cache.tags.avg_refs          nan                       # Average number of references to valid blocks.
system.cpu.itb_walker_cache.tags.warmup_cycle            0                       # Cycle when the warmup percentage was hit.
system.cpu.itb_walker_cache.tags.tag_accesses            0                       # Number of tag accesses
system.cpu.itb_walker_cache.tags.data_accesses            0                       # Number of data accesses
system.cpu.itb_walker_cache.tags.power_state.pwrStateResidencyTicks::UNDEFINED 190663679500                       # Cumulative time (in ticks) in various power states
system.cpu.itb.walker.power_state.pwrStateResidencyTicks::UNDEFINED 190663679500                       # Cumulative time (in ticks) in various power states
system.cpu.dtb_walker_cache.blocked_cycles::no_mshrs            0                       # number of cycles access was blocked
system.cpu.dtb_walker_cache.blocked_cycles::no_targets            0                       # number of cycles access was blocked
system.cpu.dtb_walker_cache.blocked::no_mshrs            0                       # number of cycles access was blocked
system.cpu.dtb_walker_cache.blocked::no_targets            0                       # number of cycles access was blocked
system.cpu.dtb_walker_cache.avg_blocked_cycles::no_mshrs          nan                       # average number of cycles each access was blocked
system.cpu.dtb_walker_cache.avg_blocked_cycles::no_targets          nan                       # average number of cycles each access was blocked
system.cpu.dtb_walker_cache.replacements            0                       # number of replacements
system.cpu.dtb_walker_cache.power_state.pwrStateResidencyTicks::UNDEFINED 190663679500                       # Cumulative time (in ticks) in various power states
system.cpu.dtb_walker_cache.tags.tagsinuse            0                       # Cycle average of tags in use
system.cpu.dtb_walker_cache.tags.total_refs            0                       # Total number of references to valid blocks.
system.cpu.dtb_walker_cache.tags.sampled_refs            0                       # Sample count of references to valid blocks.
system.cpu.dtb_walker_cache.tags.avg_refs          nan                       # Average number of references to valid blocks.
system.cpu.dtb_walker_cache.tags.warmup_cycle            0                       # Cycle when the warmup percentage was hit.
system.cpu.dtb_walker_cache.tags.tag_accesses            0                       # Number of tag accesses
system.cpu.dtb_walker_cache.tags.data_accesses            0                       # Number of data accesses
system.cpu.dtb_walker_cache.tags.power_state.pwrStateResidencyTicks::UNDEFINED 190663679500                       # Cumulative time (in ticks) in various power states
system.cpu.dcache.demand_hits::.cpu.data     50998708                       # number of demand (read+write) hits
system.cpu.dcache.demand_hits::total         50998708                       # number of demand (read+write) hits
system.cpu.dcache.overall_hits::.cpu.data     51001412                       # number of overall hits
system.cpu.dcache.overall_hits::total        51001412                       # number of overall hits
system.cpu.dcache.demand_misses::.cpu.data        20113                       # number of demand (read+write) misses
system.cpu.dcache.demand_misses::total          20113                       # number of demand (read+write) misses
system.cpu.dcache.overall_misses::.cpu.data        21900                       # number of overall misses
system.cpu.dcache.overall_misses::total         21900                       # number of overall misses
system.cpu.dcache.demand_miss_latency::.cpu.data    427416500                       # number of demand (read+write) miss cycles
system.cpu.dcache.demand_miss_latency::total    427416500                       # number of demand (read+write) miss cycles
system.cpu.dcache.overall_miss_latency::.cpu.data    427416500                       # number of overall miss cycles
system.cpu.dcache.overall_miss_latency::total    427416500                       # number of overall miss cycles
system.cpu.dcache.demand_accesses::.cpu.data     51018821                       # number of demand (read+write) accesses
system.cpu.dcache.demand_accesses::total     51018821                       # number of demand (read+write) accesses
system.cpu.dcache.overall_accesses::.cpu.data     51023312                       # number of overall (read+write) accesses
system.cpu.dcache.overall_accesses::total     51023312                       # number of overall (read+write) accesses
system.cpu.dcache.demand_miss_rate::.cpu.data     0.000394                       # miss rate for demand accesses
system.cpu.dcache.demand_miss_rate::total     0.000394                       # miss rate for demand accesses
system.cpu.dcache.overall_miss_rate::.cpu.data     0.000429                       # miss rate for overall accesses
system.cpu.dcache.overall_miss_rate::total     0.000429                       # miss rate for overall accesses
system.cpu.dcache.demand_avg_miss_latency::.cpu.data 21250.758216                       # average overall miss latency
system.cpu.dcache.demand_avg_miss_latency::total 21250.758216                       # average overall miss latency
system.cpu.dcache.overall_avg_miss_latency::.cpu.data 19516.735160                       # average overall miss latency
system.cpu.dcache.overall_avg_miss_latency::total 19516.735160                       # average overall miss latency
system.cpu.dcache.blocked_cycles::no_mshrs          216                       # number of cycles access was blocked
system.cpu.dcache.blocked_cycles::no_targets            0                       # number of cycles access was blocked
system.cpu.dcache.blocked::no_mshrs                 4                       # number of cycles access was blocked
system.cpu.dcache.blocked::no_targets               0                       # number of cycles access was blocked
system.cpu.dcache.avg_blocked_cycles::no_mshrs           54                       # average number of cycles each access was blocked
system.cpu.dcache.avg_blocked_cycles::no_targets          nan                       # average number of cycles each access was blocked
system.cpu.dcache.writebacks::.writebacks        19640                       # number of writebacks
system.cpu.dcache.writebacks::total             19640                       # number of writebacks
system.cpu.dcache.demand_mshr_misses::.cpu.data        20113                       # number of demand (read+write) MSHR misses
system.cpu.dcache.demand_mshr_misses::total        20113                       # number of demand (read+write) MSHR misses
system.cpu.dcache.overall_mshr_misses::.cpu.data        21323                       # number of overall MSHR misses
system.cpu.dcache.overall_mshr_misses::total        21323                       # number of overall MSHR misses
system.cpu.dcache.demand_mshr_miss_latency::.cpu.data    407303500                       # number of demand (read+write) MSHR miss cycles
system.cpu.dcache.demand_mshr_miss_latency::total    407303500                       # number of demand (read+write) MSHR miss cycles
system.cpu.dcache.overall_mshr_miss_latency::.cpu.data    449362000                       # number of overall MSHR miss cycles
system.cpu.dcache.overall_mshr_miss_latency::total    449362000                       # number of overall MSHR miss cycles
system.cpu.dcache.demand_mshr_miss_rate::.cpu.data     0.000394                       # mshr miss rate for demand accesses
system.cpu.dcache.demand_mshr_miss_rate::total     0.000394                       # mshr miss rate for demand accesses
system.cpu.dcache.overall_mshr_miss_rate::.cpu.data     0.000418                       # mshr miss rate for overall accesses
system.cpu.dcache.overall_mshr_miss_rate::total     0.000418                       # mshr miss rate for overall accesses
system.cpu.dcache.demand_avg_mshr_miss_latency::.cpu.data 20250.758216                       # average overall mshr miss latency
system.cpu.dcache.demand_avg_mshr_miss_latency::total 20250.758216                       # average overall mshr miss latency
system.cpu.dcache.overall_avg_mshr_miss_latency::.cpu.data 21074.051494                       # average overall mshr miss latency
system.cpu.dcache.overall_avg_mshr_miss_latency::total 21074.051494                       # average overall mshr miss latency
system.cpu.dcache.replacements                  20299                       # number of replacements
system.cpu.dcache.ReadReq_hits::.cpu.data     43794728                       # number of ReadReq hits
system.cpu.dcache.ReadReq_hits::total        43794728                       # number of ReadReq hits
system.cpu.dcache.ReadReq_misses::.cpu.data         5980                       # number of ReadReq misses
system.cpu.dcache.ReadReq_misses::total          5980                       # number of ReadReq misses
system.cpu.dcache.ReadReq_miss_latency::.cpu.data    105896500                       # number of ReadReq miss cycles
system.cpu.dcache.ReadReq_miss_latency::total    105896500                       # number of ReadReq miss cycles
system.cpu.dcache.ReadReq_accesses::.cpu.data     43800708                       # number of ReadReq accesses(hits+misses)
system.cpu.dcache.ReadReq_accesses::total     43800708                       # number of ReadReq accesses(hits+misses)
system.cpu.dcache.ReadReq_miss_rate::.cpu.data     0.000137                       # miss rate for ReadReq accesses
system.cpu.dcache.ReadReq_miss_rate::total     0.000137                       # miss rate for ReadReq accesses
system.cpu.dcache.ReadReq_avg_miss_latency::.cpu.data 17708.444816                       # average ReadReq miss latency
system.cpu.dcache.ReadReq_avg_miss_latency::total 17708.444816                       # average ReadReq miss latency
system.cpu.dcache.ReadReq_mshr_misses::.cpu.data         5980                       # number of ReadReq MSHR misses
system.cpu.dcache.ReadReq_mshr_misses::total         5980                       # number of ReadReq MSHR misses
system.cpu.dcache.ReadReq_mshr_miss_latency::.cpu.data     99916500                       # number of ReadReq MSHR miss cycles
system.cpu.dcache.ReadReq_mshr_miss_latency::total     99916500                       # number of ReadReq MSHR miss cycles
system.cpu.dcache.ReadReq_mshr_miss_rate::.cpu.data     0.000137                       # mshr miss rate for ReadReq accesses
system.cpu.dcache.ReadReq_mshr_miss_rate::total     0.000137                       # mshr miss rate for ReadReq accesses
system.cpu.dcache.ReadReq_avg_mshr_miss_latency::.cpu.data 16708.444816                       # average ReadReq mshr miss latency
system.cpu.dcache.ReadReq_avg_mshr_miss_latency::total 16708.444816                       # average ReadReq mshr miss latency
system.cpu.dcache.WriteReq_hits::.cpu.data      7203980                       # number of WriteReq hits
system.cpu.dcache.WriteReq_hits::total        7203980                       # number of WriteReq hits
system.cpu.dcache.WriteReq_misses::.cpu.data        14133                       # number of WriteReq misses
system.cpu.dcache.WriteReq_misses::total        14133                       # number of WriteReq misses
system.cpu.dcache.WriteReq_miss_latency::.cpu.data    321520000                       # number of WriteReq miss cycles
system.cpu.dcache.WriteReq_miss_latency::total    321520000                       # number of WriteReq miss cycles
system.cpu.dcache.WriteReq_accesses::.cpu.data      7218113                       # number of WriteReq accesses(hits+misses)
system.cpu.dcache.WriteReq_accesses::total      7218113                       # number of WriteReq accesses(hits+misses)
system.cpu.dcache.WriteReq_miss_rate::.cpu.data     0.001958                       # miss rate for WriteReq accesses
system.cpu.dcache.WriteReq_miss_rate::total     0.001958                       # miss rate for WriteReq accesses
system.cpu.dcache.WriteReq_avg_miss_latency::.cpu.data 22749.593151                       # average WriteReq miss latency
system.cpu.dcache.WriteReq_avg_miss_latency::total 22749.593151                       # average WriteReq miss latency
system.cpu.dcache.WriteReq_mshr_misses::.cpu.data        14133                       # number of WriteReq MSHR misses
system.cpu.dcache.WriteReq_mshr_misses::total        14133                       # number of WriteReq MSHR misses
system.cpu.dcache.WriteReq_mshr_miss_latency::.cpu.data    307387000                       # number of WriteReq MSHR miss cycles
system.cpu.dcache.WriteReq_mshr_miss_latency::total    307387000                       # number of WriteReq MSHR miss cycles
system.cpu.dcache.WriteReq_mshr_miss_rate::.cpu.data     0.001958                       # mshr miss rate for WriteReq accesses
system.cpu.dcache.WriteReq_mshr_miss_rate::total     0.001958                       # mshr miss rate for WriteReq accesses
system.cpu.dcache.WriteReq_avg_mshr_miss_latency::.cpu.data 21749.593151                       # average WriteReq mshr miss latency
system.cpu.dcache.WriteReq_avg_mshr_miss_latency::total 21749.593151                       # average WriteReq mshr miss latency
system.cpu.dcache.SoftPFReq_hits::.cpu.data         2704                       # number of SoftPFReq hits
system.cpu.dcache.SoftPFReq_hits::total          2704                       # number of SoftPFReq hits
system.cpu.dcache.SoftPFReq_misses::.cpu.data         1787                       # number of SoftPFReq misses
system.cpu.dcache.SoftPFReq_misses::total         1787                       # number of SoftPFReq misses
system.cpu.dcache.SoftPFReq_accesses::.cpu.data         4491                       # number of SoftPFReq accesses(hits+misses)
system.cpu.dcache.SoftPFReq_accesses::total         4491                       # number of SoftPFReq accesses(hits+misses)
system.cpu.dcache.SoftPFReq_miss_rate::.cpu.data     0.397907                       # miss rate for SoftPFReq accesses
system.cpu.dcache.SoftPFReq_miss_rate::total     0.397907                       # miss rate for SoftPFReq accesses
system.cpu.dcache.SoftPFReq_mshr_misses::.cpu.data         1210                       # number of SoftPFReq MSHR misses
system.cpu.dcache.SoftPFReq_mshr_misses::total         1210                       # number of SoftPFReq MSHR misses
system.cpu.dcache.SoftPFReq_mshr_miss_latency::.cpu.data     42058500                       # number of SoftPFReq MSHR miss cycles
system.cpu.dcache.SoftPFReq_mshr_miss_latency::total     42058500                       # number of SoftPFReq MSHR miss cycles
system.cpu.dcache.SoftPFReq_mshr_miss_rate::.cpu.data     0.269428                       # mshr miss rate for SoftPFReq accesses
system.cpu.dcache.SoftPFReq_mshr_miss_rate::total     0.269428                       # mshr miss rate for SoftPFReq accesses
system.cpu.dcache.SoftPFReq_avg_mshr_miss_latency::.cpu.data 34759.090909                       # average SoftPFReq mshr miss latency
system.cpu.dcache.SoftPFReq_avg_mshr_miss_latency::total 34759.090909                       # average SoftPFReq mshr miss latency
system.cpu.dcache.power_state.pwrStateResidencyTicks::UNDEFINED 190663679500                       # Cumulative time (in ticks) in various power states
system.cpu.dcache.tags.tagsinuse          1014.170018                       # Cycle average of tags in use
system.cpu.dcache.tags.total_refs            51022735                       # Total number of references to valid blocks.
system.cpu.dcache.tags.sampled_refs             21323                       # Sample count of references to valid blocks.
system.cpu.dcache.tags.avg_refs           2392.849740                       # Average number of references to valid blocks.
system.cpu.dcache.tags.warmup_cycle            187500                       # Cycle when the warmup percentage was hit.
system.cpu.dcache.tags.occ_blocks::.cpu.data  1014.170018                       # Average occupied blocks per requestor
system.cpu.dcache.tags.occ_percent::.cpu.data     0.990400                       # Average percentage of cache occupancy
system.cpu.dcache.tags.occ_percent::total     0.990400                       # Average percentage of cache occupancy
system.cpu.dcache.tags.occ_task_id_blocks::1024         1024                       # Occupied blocks per task id
system.cpu.dcache.tags.age_task_id_blocks_1024::2           36                       # Occupied blocks per task id
system.cpu.dcache.tags.age_task_id_blocks_1024::3          179                       # Occupied blocks per task id
system.cpu.dcache.tags.age_task_id_blocks_1024::4          809                       # Occupied blocks per task id
system.cpu.dcache.tags.occ_task_id_percent::1024            1                       # Percentage of cache occupancy per task id
system.cpu.dcache.tags.tag_accesses         102067947                       # Number of tag accesses
system.cpu.dcache.tags.data_accesses        102067947                       # Number of data accesses
system.cpu.dcache.tags.power_state.pwrStateResidencyTicks::UNDEFINED 190663679500                       # Cumulative time (in ticks) in various power states
system.cpu.power_state.numTransitions               1                       # Number of power state transitions
system.cpu.power_state.pwrStateResidencyTicks::ON 190663679500                       # Cumulative time (in ticks) in various power states

---------- End Simulation Statistics   ----------
