
---------- Begin Simulation Statistics ----------
final_tick                               179308166500                       # Number of ticks from beginning of simulation (restored from checkpoints and never reset)
host_inst_rate                                 388312                       # Simulator instruction rate (inst/s)
host_mem_usage                                 831780                       # Number of bytes of host memory used
host_op_rate                                   739889                       # Simulator op (including micro ops) rate (op/s)
host_seconds                                   257.53                       # Real time elapsed on the host
host_tick_rate                              696274434                       # Simulator tick rate (ticks/s)
sim_freq                                 1000000000000                       # Frequency of simulated ticks
sim_insts                                   100000000                       # Number of instructions simulated
sim_ops                                     190540041                       # Number of ops (including micro ops) simulated
sim_seconds                                  0.179308                       # Number of seconds simulated
sim_ticks                                179308166500                       # Number of ticks simulated
system.cpu.Branches                          24000881                       # Number of branches fetched
system.cpu.committedInsts                   100000000                       # Number of instructions committed
system.cpu.committedOps                     190540041                       # Number of ops (including micro ops) committed
system.cpu.dtb.rdAccesses                    21050178                       # TLB accesses on read requests
system.cpu.dtb.rdMisses                         23040                       # TLB misses on read requests
system.cpu.dtb.wrAccesses                    13829383                       # TLB accesses on write requests
system.cpu.dtb.wrMisses                          2550                       # TLB misses on write requests
system.cpu.idle_fraction                            0                       # Percentage of idle cycles
system.cpu.itb.rdAccesses                           0                       # TLB accesses on read requests
system.cpu.itb.rdMisses                             0                       # TLB misses on read requests
system.cpu.itb.wrAccesses                   137064821                       # TLB accesses on write requests
system.cpu.itb.wrMisses                            47                       # TLB misses on write requests
system.cpu.not_idle_fraction                        1                       # Percentage of non-idle cycles
system.cpu.numCycles                        358616333                       # number of cpu cycles simulated
system.cpu.numWorkItemsCompleted                    0                       # number of work items this cpu completed
system.cpu.numWorkItemsStarted                      0                       # number of work items this cpu started
system.cpu.num_busy_cycles                  358616333                       # Number of busy cycles
system.cpu.num_cc_register_reads            122908846                       # number of times the CC registers were read
system.cpu.num_cc_register_writes            61435560                       # number of times the CC registers were written
system.cpu.num_conditional_control_insts     19459907                       # number of instructions that are conditional controls
system.cpu.num_fp_alu_accesses                1569268                       # Number of float alu accesses
system.cpu.num_fp_insts                       1569268                       # number of float instructions
system.cpu.num_fp_register_reads              2390880                       # number of times the floating registers were read
system.cpu.num_fp_register_writes             1344572                       # number of times the floating registers were written
system.cpu.num_func_calls                     1953960                       # number of times a function call or return occured
system.cpu.num_idle_cycles                          0                       # Number of idle cycles
system.cpu.num_int_alu_accesses             188723558                       # Number of integer alu accesses
system.cpu.num_int_insts                    188723558                       # number of integer instructions
system.cpu.num_int_register_reads           361783354                       # number of times the integer registers were read
system.cpu.num_int_register_writes          151141398                       # number of times the integer registers were written
system.cpu.num_load_insts                    21042632                       # Number of load instructions
system.cpu.num_mem_refs                      34872014                       # number of memory refs
system.cpu.num_store_insts                   13829382                       # Number of store instructions
system.cpu.num_vec_alu_accesses                     0                       # Number of vector alu accesses
system.cpu.num_vec_insts                            0                       # number of vector instructions
system.cpu.num_vec_register_reads                   0                       # number of times the vector registers were read
system.cpu.num_vec_register_writes                  0                       # number of times the vector registers were written
system.cpu.op_class::No_OpClass                510687      0.27%      0.27% # Class of executed instruction
system.cpu.op_class::IntAlu                 153440968     80.53%     80.80% # Class of executed instruction
system.cpu.op_class::IntMult                   472547      0.25%     81.04% # Class of executed instruction
system.cpu.op_class::IntDiv                        28      0.00%     81.05% # Class of executed instruction
system.cpu.op_class::FloatAdd                   99508      0.05%     81.10% # Class of executed instruction
system.cpu.op_class::FloatCmp                       0      0.00%     81.10% # Class of executed instruction
system.cpu.op_class::FloatCvt                       0      0.00%     81.10% # Class of executed instruction
system.cpu.op_class::FloatMult                      0      0.00%     81.10% # Class of executed instruction
system.cpu.op_class::FloatMultAcc                   0      0.00%     81.10% # Class of executed instruction
system.cpu.op_class::FloatDiv                       0      0.00%     81.10% # Class of executed instruction
system.cpu.op_class::FloatMisc                      0      0.00%     81.10% # Class of executed instruction
system.cpu.op_class::FloatSqrt                      0      0.00%     81.10% # Class of executed instruction
system.cpu.op_class::SimdAdd                        0      0.00%     81.10% # Class of executed instruction
system.cpu.op_class::SimdAddAcc                     0      0.00%     81.10% # Class of executed instruction
system.cpu.op_class::SimdAlu                       98      0.00%     81.10% # Class of executed instruction
system.cpu.op_class::SimdCmp                        0      0.00%     81.10% # Class of executed instruction
system.cpu.op_class::SimdCvt                   224452      0.12%     81.22% # Class of executed instruction
system.cpu.op_class::SimdMisc                  921012      0.48%     81.70% # Class of executed instruction
system.cpu.op_class::SimdMult                       0      0.00%     81.70% # Class of executed instruction
system.cpu.op_class::SimdMultAcc                    0      0.00%     81.70% # Class of executed instruction
system.cpu.op_class::SimdShift                      0      0.00%     81.70% # Class of executed instruction
system.cpu.op_class::SimdShiftAcc                   0      0.00%     81.70% # Class of executed instruction
system.cpu.op_class::SimdDiv                        0      0.00%     81.70% # Class of executed instruction
system.cpu.op_class::SimdSqrt                       0      0.00%     81.70% # Class of executed instruction
system.cpu.op_class::SimdFloatAdd                   0      0.00%     81.70% # Class of executed instruction
system.cpu.op_class::SimdFloatAlu                   0      0.00%     81.70% # Class of executed instruction
system.cpu.op_class::SimdFloatCmp                   0      0.00%     81.70% # Class of executed instruction
system.cpu.op_class::SimdFloatCvt                   0      0.00%     81.70% # Class of executed instruction
system.cpu.op_class::SimdFloatDiv                   0      0.00%     81.70% # Class of executed instruction
system.cpu.op_class::SimdFloatMisc                  0      0.00%     81.70% # Class of executed instruction
system.cpu.op_class::SimdFloatMult                  0      0.00%     81.70% # Class of executed instruction
system.cpu.op_class::SimdFloatMultAcc               0      0.00%     81.70% # Class of executed instruction
system.cpu.op_class::SimdFloatSqrt                  0      0.00%     81.70% # Class of executed instruction
system.cpu.op_class::SimdReduceAdd                  0      0.00%     81.70% # Class of executed instruction
system.cpu.op_class::SimdReduceAlu                  0      0.00%     81.70% # Class of executed instruction
system.cpu.op_class::SimdReduceCmp                  0      0.00%     81.70% # Class of executed instruction
system.cpu.op_class::SimdFloatReduceAdd             0      0.00%     81.70% # Class of executed instruction
system.cpu.op_class::SimdFloatReduceCmp             0      0.00%     81.70% # Class of executed instruction
system.cpu.op_class::SimdAes                        0      0.00%     81.70% # Class of executed instruction
system.cpu.op_class::SimdAesMix                     0      0.00%     81.70% # Class of executed instruction
system.cpu.op_class::SimdSha1Hash                   0      0.00%     81.70% # Class of executed instruction
system.cpu.op_class::SimdSha1Hash2                  0      0.00%     81.70% # Class of executed instruction
system.cpu.op_class::SimdSha256Hash                 0      0.00%     81.70% # Class of executed instruction
system.cpu.op_class::SimdSha256Hash2                0      0.00%     81.70% # Class of executed instruction
system.cpu.op_class::SimdShaSigma2                  0      0.00%     81.70% # Class of executed instruction
system.cpu.op_class::SimdShaSigma3                  0      0.00%     81.70% # Class of executed instruction
system.cpu.op_class::SimdPredAlu                    0      0.00%     81.70% # Class of executed instruction
system.cpu.op_class::MemRead                 20818188     10.93%     92.62% # Class of executed instruction
system.cpu.op_class::MemWrite                13829142      7.26%     99.88% # Class of executed instruction
system.cpu.op_class::FloatMemRead              224444      0.12%    100.00% # Class of executed instruction
system.cpu.op_class::FloatMemWrite                240      0.00%    100.00% # Class of executed instruction
system.cpu.op_class::IprAccess                      0      0.00%    100.00% # Class of executed instruction
system.cpu.op_class::InstPrefetch                   0      0.00%    100.00% # Class of executed instruction
system.cpu.op_class::total                  190541314                       # Class of executed instruction
system.cpu.workload.numSyscalls                    98                       # Number of system calls
system.membus.snoop_filter.hit_multi_requests            0                       # Number of requests hitting in the snoop filter with multiple (>1) holders of the requested data.
system.membus.snoop_filter.hit_multi_snoops            0                       # Number of snoops hitting in the snoop filter with multiple (>1) holders of the requested data.
system.membus.snoop_filter.hit_single_requests        55343                       # Number of requests hitting in the snoop filter with a single holder of the requested data.
system.membus.snoop_filter.hit_single_snoops            0                       # Number of snoops hitting in the snoop filter with a single holder of the requested data.
system.membus.snoop_filter.tot_requests        144051                       # Total number of requests made to the snoop filter.
system.membus.snoop_filter.tot_snoops               0                       # Total number of snoops made to the snoop filter.
system.tol2bus.snoop_filter.hit_multi_requests            1                       # Number of requests hitting in the snoop filter with multiple (>1) holders of the requested data.
system.tol2bus.snoop_filter.hit_multi_snoops            0                       # Number of snoops hitting in the snoop filter with multiple (>1) holders of the requested data.
system.tol2bus.snoop_filter.hit_single_requests        95249                       # Number of requests hitting in the snoop filter with a single holder of the requested data.
system.tol2bus.snoop_filter.hit_single_snoops         3352                       # Number of snoops hitting in the snoop filter with a single holder of the requested data.
system.tol2bus.snoop_filter.tot_requests       193023                       # Total number of requests made to the snoop filter.
system.tol2bus.snoop_filter.tot_snoops           3352                       # Total number of snoops made to the snoop filter.
system.membus.trans_dist::ReadResp              11934                       # Transaction distribution
system.membus.trans_dist::WritebackDirty        54859                       # Transaction distribution
system.membus.trans_dist::CleanEvict              484                       # Transaction distribution
system.membus.trans_dist::ReadExReq             76774                       # Transaction distribution
system.membus.trans_dist::ReadExResp            76774                       # Transaction distribution
system.membus.trans_dist::ReadSharedReq         11934                       # Transaction distribution
system.membus.pkt_count_system.l2.mem_side::system.mem_ctrls.port       232759                       # Packet count per connected master and slave (bytes)
system.membus.pkt_count_system.l2.mem_side::total       232759                       # Packet count per connected master and slave (bytes)
system.membus.pkt_count::total                 232759                       # Packet count per connected master and slave (bytes)
system.membus.pkt_size_system.l2.mem_side::system.mem_ctrls.port      9188288                       # Cumulative packet size per connected master and slave (bytes)
system.membus.pkt_size_system.l2.mem_side::total      9188288                       # Cumulative packet size per connected master and slave (bytes)
system.membus.pkt_size::total                 9188288                       # Cumulative packet size per connected master and slave (bytes)
system.membus.snoops                                0                       # Total snoops (count)
system.membus.snoopTraffic                          0                       # Total snoop traffic (bytes)
system.membus.snoop_fanout::samples             88708                       # Request fanout histogram
system.membus.snoop_fanout::mean                    0                       # Request fanout histogram
system.membus.snoop_fanout::stdev                   0                       # Request fanout histogram
system.membus.snoop_fanout::underflows              0      0.00%      0.00% # Request fanout histogram
system.membus.snoop_fanout::0                   88708    100.00%    100.00% # Request fanout histogram
system.membus.snoop_fanout::1                       0      0.00%    100.00% # Request fanout histogram
system.membus.snoop_fanout::overflows               0      0.00%    100.00% # Request fanout histogram
system.membus.snoop_fanout::min_value               0                       # Request fanout histogram
system.membus.snoop_fanout::max_value               0                       # Request fanout histogram
system.membus.snoop_fanout::total               88708                       # Request fanout histogram
system.membus.reqLayer2.occupancy           367259500                       # Layer occupancy (ticks)
system.membus.reqLayer2.utilization               0.2                       # Layer utilization (%)
system.membus.respLayer1.occupancy          474770500                       # Layer occupancy (ticks)
system.membus.respLayer1.utilization              0.3                       # Layer utilization (%)
system.membus.power_state.pwrStateResidencyTicks::UNDEFINED 179308166500                       # Cumulative time (in ticks) in various power states
system.tol2bus.trans_dist::ReadResp             20996                       # Transaction distribution
system.tol2bus.trans_dist::WritebackDirty       147978                       # Transaction distribution
system.tol2bus.trans_dist::WritebackClean            9                       # Transaction distribution
system.tol2bus.trans_dist::CleanEvict            5611                       # Transaction distribution
system.tol2bus.trans_dist::ReadExReq            76778                       # Transaction distribution
system.tol2bus.trans_dist::ReadExResp           76778                       # Transaction distribution
system.tol2bus.trans_dist::ReadCleanReq           486                       # Transaction distribution
system.tol2bus.trans_dist::ReadSharedReq        20510                       # Transaction distribution
system.tol2bus.pkt_count_system.cpu.icache.mem_side::system.l2.cpu_side          981                       # Packet count per connected master and slave (bytes)
system.tol2bus.pkt_count_system.cpu.dcache.mem_side::system.l2.cpu_side       289816                       # Packet count per connected master and slave (bytes)
system.tol2bus.pkt_count::total                290797                       # Packet count per connected master and slave (bytes)
system.tol2bus.pkt_size_system.cpu.icache.mem_side::system.l2.cpu_side        31680                       # Cumulative packet size per connected master and slave (bytes)
system.tol2bus.pkt_size_system.cpu.dcache.mem_side::system.l2.cpu_side     12186048                       # Cumulative packet size per connected master and slave (bytes)
system.tol2bus.pkt_size::total               12217728                       # Cumulative packet size per connected master and slave (bytes)
system.tol2bus.snoops                           58349                       # Total snoops (count)
system.tol2bus.snoopTraffic                   3510976                       # Total snoop traffic (bytes)
system.tol2bus.snoop_fanout::samples           156123                       # Request fanout histogram
system.tol2bus.snoop_fanout::mean            0.021477                       # Request fanout histogram
system.tol2bus.snoop_fanout::stdev           0.144967                       # Request fanout histogram
system.tol2bus.snoop_fanout::underflows             0      0.00%      0.00% # Request fanout histogram
system.tol2bus.snoop_fanout::0                 152770     97.85%     97.85% # Request fanout histogram
system.tol2bus.snoop_fanout::1                   3353      2.15%    100.00% # Request fanout histogram
system.tol2bus.snoop_fanout::2                      0      0.00%    100.00% # Request fanout histogram
system.tol2bus.snoop_fanout::3                      0      0.00%    100.00% # Request fanout histogram
system.tol2bus.snoop_fanout::4                      0      0.00%    100.00% # Request fanout histogram
system.tol2bus.snoop_fanout::overflows              0      0.00%    100.00% # Request fanout histogram
system.tol2bus.snoop_fanout::min_value              0                       # Request fanout histogram
system.tol2bus.snoop_fanout::max_value              1                       # Request fanout histogram
system.tol2bus.snoop_fanout::total             156123                       # Request fanout histogram
system.tol2bus.reqLayer0.occupancy          189639500                       # Layer occupancy (ticks)
system.tol2bus.reqLayer0.utilization              0.1                       # Layer utilization (%)
system.tol2bus.respLayer1.occupancy         145932000                       # Layer occupancy (ticks)
system.tol2bus.respLayer1.utilization             0.1                       # Layer utilization (%)
system.tol2bus.respLayer0.occupancy            729000                       # Layer occupancy (ticks)
system.tol2bus.respLayer0.utilization             0.0                       # Layer utilization (%)
system.tol2bus.power_state.pwrStateResidencyTicks::UNDEFINED 179308166500                       # Cumulative time (in ticks) in various power states
system.voltage_domain.voltage                       1                       # Voltage in Volts
system.clk_domain.clock                          1000                       # Clock period in ticks
system.l2.demand_hits::.cpu.inst                    1                       # number of demand (read+write) hits
system.l2.demand_hits::.cpu.data                 9065                       # number of demand (read+write) hits
system.l2.demand_hits::total                     9066                       # number of demand (read+write) hits
system.l2.overall_hits::.cpu.inst                   1                       # number of overall hits
system.l2.overall_hits::.cpu.data                9065                       # number of overall hits
system.l2.overall_hits::total                    9066                       # number of overall hits
system.l2.demand_misses::.cpu.inst                485                       # number of demand (read+write) misses
system.l2.demand_misses::.cpu.data              88223                       # number of demand (read+write) misses
system.l2.demand_misses::total                  88708                       # number of demand (read+write) misses
system.l2.overall_misses::.cpu.inst               485                       # number of overall misses
system.l2.overall_misses::.cpu.data             88223                       # number of overall misses
system.l2.overall_misses::total                 88708                       # number of overall misses
system.l2.demand_miss_latency::.cpu.inst     36542000                       # number of demand (read+write) miss cycles
system.l2.demand_miss_latency::.cpu.data   7090436500                       # number of demand (read+write) miss cycles
system.l2.demand_miss_latency::total       7126978500                       # number of demand (read+write) miss cycles
system.l2.overall_miss_latency::.cpu.inst     36542000                       # number of overall miss cycles
system.l2.overall_miss_latency::.cpu.data   7090436500                       # number of overall miss cycles
system.l2.overall_miss_latency::total      7126978500                       # number of overall miss cycles
system.l2.demand_accesses::.cpu.inst              486                       # number of demand (read+write) accesses
system.l2.demand_accesses::.cpu.data            97288                       # number of demand (read+write) accesses
system.l2.demand_accesses::total                97774                       # number of demand (read+write) accesses
system.l2.overall_accesses::.cpu.inst             486                       # number of overall (read+write) accesses
system.l2.overall_accesses::.cpu.data           97288                       # number of overall (read+write) accesses
system.l2.overall_accesses::total               97774                       # number of overall (read+write) accesses
system.l2.demand_miss_rate::.cpu.inst        0.997942                       # miss rate for demand accesses
system.l2.demand_miss_rate::.cpu.data        0.906823                       # miss rate for demand accesses
system.l2.demand_miss_rate::total            0.907276                       # miss rate for demand accesses
system.l2.overall_miss_rate::.cpu.inst       0.997942                       # miss rate for overall accesses
system.l2.overall_miss_rate::.cpu.data       0.906823                       # miss rate for overall accesses
system.l2.overall_miss_rate::total           0.907276                       # miss rate for overall accesses
system.l2.demand_avg_miss_latency::.cpu.inst 75344.329897                       # average overall miss latency
system.l2.demand_avg_miss_latency::.cpu.data 80369.478481                       # average overall miss latency
system.l2.demand_avg_miss_latency::total 80342.004103                       # average overall miss latency
system.l2.overall_avg_miss_latency::.cpu.inst 75344.329897                       # average overall miss latency
system.l2.overall_avg_miss_latency::.cpu.data 80369.478481                       # average overall miss latency
system.l2.overall_avg_miss_latency::total 80342.004103                       # average overall miss latency
system.l2.blocked_cycles::no_mshrs                  0                       # number of cycles access was blocked
system.l2.blocked_cycles::no_targets                0                       # number of cycles access was blocked
system.l2.blocked::no_mshrs                         0                       # number of cycles access was blocked
system.l2.blocked::no_targets                       0                       # number of cycles access was blocked
system.l2.avg_blocked_cycles::no_mshrs            nan                       # average number of cycles each access was blocked
system.l2.avg_blocked_cycles::no_targets          nan                       # average number of cycles each access was blocked
system.l2.writebacks::.writebacks               54859                       # number of writebacks
system.l2.writebacks::total                     54859                       # number of writebacks
system.l2.demand_mshr_misses::.cpu.inst           485                       # number of demand (read+write) MSHR misses
system.l2.demand_mshr_misses::.cpu.data         88223                       # number of demand (read+write) MSHR misses
system.l2.demand_mshr_misses::total             88708                       # number of demand (read+write) MSHR misses
system.l2.overall_mshr_misses::.cpu.inst          485                       # number of overall MSHR misses
system.l2.overall_mshr_misses::.cpu.data        88223                       # number of overall MSHR misses
system.l2.overall_mshr_misses::total            88708                       # number of overall MSHR misses
system.l2.demand_mshr_miss_latency::.cpu.inst     31692000                       # number of demand (read+write) MSHR miss cycles
system.l2.demand_mshr_miss_latency::.cpu.data   6208206500                       # number of demand (read+write) MSHR miss cycles
system.l2.demand_mshr_miss_latency::total   6239898500                       # number of demand (read+write) MSHR miss cycles
system.l2.overall_mshr_miss_latency::.cpu.inst     31692000                       # number of overall MSHR miss cycles
system.l2.overall_mshr_miss_latency::.cpu.data   6208206500                       # number of overall MSHR miss cycles
system.l2.overall_mshr_miss_latency::total   6239898500                       # number of overall MSHR miss cycles
system.l2.demand_mshr_miss_rate::.cpu.inst     0.997942                       # mshr miss rate for demand accesses
system.l2.demand_mshr_miss_rate::.cpu.data     0.906823                       # mshr miss rate for demand accesses
system.l2.demand_mshr_miss_rate::total       0.907276                       # mshr miss rate for demand accesses
system.l2.overall_mshr_miss_rate::.cpu.inst     0.997942                       # mshr miss rate for overall accesses
system.l2.overall_mshr_miss_rate::.cpu.data     0.906823                       # mshr miss rate for overall accesses
system.l2.overall_mshr_miss_rate::total      0.907276                       # mshr miss rate for overall accesses
system.l2.demand_avg_mshr_miss_latency::.cpu.inst 65344.329897                       # average overall mshr miss latency
system.l2.demand_avg_mshr_miss_latency::.cpu.data 70369.478481                       # average overall mshr miss latency
system.l2.demand_avg_mshr_miss_latency::total 70342.004103                       # average overall mshr miss latency
system.l2.overall_avg_mshr_miss_latency::.cpu.inst 65344.329897                       # average overall mshr miss latency
system.l2.overall_avg_mshr_miss_latency::.cpu.data 70369.478481                       # average overall mshr miss latency
system.l2.overall_avg_mshr_miss_latency::total 70342.004103                       # average overall mshr miss latency
system.l2.replacements                          58349                       # number of replacements
system.l2.WritebackDirty_hits::.writebacks        93119                       # number of WritebackDirty hits
system.l2.WritebackDirty_hits::total            93119                       # number of WritebackDirty hits
system.l2.WritebackDirty_accesses::.writebacks        93119                       # number of WritebackDirty accesses(hits+misses)
system.l2.WritebackDirty_accesses::total        93119                       # number of WritebackDirty accesses(hits+misses)
system.l2.WritebackClean_hits::.writebacks            9                       # number of WritebackClean hits
system.l2.WritebackClean_hits::total                9                       # number of WritebackClean hits
system.l2.WritebackClean_accesses::.writebacks            9                       # number of WritebackClean accesses(hits+misses)
system.l2.WritebackClean_accesses::total            9                       # number of WritebackClean accesses(hits+misses)
system.l2.CleanEvict_mshr_misses::.writebacks          346                       # number of CleanEvict MSHR misses
system.l2.CleanEvict_mshr_misses::total           346                       # number of CleanEvict MSHR misses
system.l2.CleanEvict_mshr_miss_rate::.writebacks          inf                       # mshr miss rate for CleanEvict accesses
system.l2.CleanEvict_mshr_miss_rate::total          inf                       # mshr miss rate for CleanEvict accesses
system.l2.ReadExReq_hits::.cpu.data                 4                       # number of ReadExReq hits
system.l2.ReadExReq_hits::total                     4                       # number of ReadExReq hits
system.l2.ReadExReq_misses::.cpu.data           76774                       # number of ReadExReq misses
system.l2.ReadExReq_misses::total               76774                       # number of ReadExReq misses
system.l2.ReadExReq_miss_latency::.cpu.data   6111578500                       # number of ReadExReq miss cycles
system.l2.ReadExReq_miss_latency::total    6111578500                       # number of ReadExReq miss cycles
system.l2.ReadExReq_accesses::.cpu.data         76778                       # number of ReadExReq accesses(hits+misses)
system.l2.ReadExReq_accesses::total             76778                       # number of ReadExReq accesses(hits+misses)
system.l2.ReadExReq_miss_rate::.cpu.data     0.999948                       # miss rate for ReadExReq accesses
system.l2.ReadExReq_miss_rate::total         0.999948                       # miss rate for ReadExReq accesses
system.l2.ReadExReq_avg_miss_latency::.cpu.data 79604.794592                       # average ReadExReq miss latency
system.l2.ReadExReq_avg_miss_latency::total 79604.794592                       # average ReadExReq miss latency
system.l2.ReadExReq_mshr_misses::.cpu.data        76774                       # number of ReadExReq MSHR misses
system.l2.ReadExReq_mshr_misses::total          76774                       # number of ReadExReq MSHR misses
system.l2.ReadExReq_mshr_miss_latency::.cpu.data   5343838500                       # number of ReadExReq MSHR miss cycles
system.l2.ReadExReq_mshr_miss_latency::total   5343838500                       # number of ReadExReq MSHR miss cycles
system.l2.ReadExReq_mshr_miss_rate::.cpu.data     0.999948                       # mshr miss rate for ReadExReq accesses
system.l2.ReadExReq_mshr_miss_rate::total     0.999948                       # mshr miss rate for ReadExReq accesses
system.l2.ReadExReq_avg_mshr_miss_latency::.cpu.data 69604.794592                       # average ReadExReq mshr miss latency
system.l2.ReadExReq_avg_mshr_miss_latency::total 69604.794592                       # average ReadExReq mshr miss latency
system.l2.ReadCleanReq_hits::.cpu.inst              1                       # number of ReadCleanReq hits
system.l2.ReadCleanReq_hits::total                  1                       # number of ReadCleanReq hits
system.l2.ReadCleanReq_misses::.cpu.inst          485                       # number of ReadCleanReq misses
system.l2.ReadCleanReq_misses::total              485                       # number of ReadCleanReq misses
system.l2.ReadCleanReq_miss_latency::.cpu.inst     36542000                       # number of ReadCleanReq miss cycles
system.l2.ReadCleanReq_miss_latency::total     36542000                       # number of ReadCleanReq miss cycles
system.l2.ReadCleanReq_accesses::.cpu.inst          486                       # number of ReadCleanReq accesses(hits+misses)
system.l2.ReadCleanReq_accesses::total            486                       # number of ReadCleanReq accesses(hits+misses)
system.l2.ReadCleanReq_miss_rate::.cpu.inst     0.997942                       # miss rate for ReadCleanReq accesses
system.l2.ReadCleanReq_miss_rate::total      0.997942                       # miss rate for ReadCleanReq accesses
system.l2.ReadCleanReq_avg_miss_latency::.cpu.inst 75344.329897                       # average ReadCleanReq miss latency
system.l2.ReadCleanReq_avg_miss_latency::total 75344.329897                       # average ReadCleanReq miss latency
system.l2.ReadCleanReq_mshr_misses::.cpu.inst          485                       # number of ReadCleanReq MSHR misses
system.l2.ReadCleanReq_mshr_misses::total          485                       # number of ReadCleanReq MSHR misses
system.l2.ReadCleanReq_mshr_miss_latency::.cpu.inst     31692000                       # number of ReadCleanReq MSHR miss cycles
system.l2.ReadCleanReq_mshr_miss_latency::total     31692000                       # number of ReadCleanReq MSHR miss cycles
system.l2.ReadCleanReq_mshr_miss_rate::.cpu.inst     0.997942                       # mshr miss rate for ReadCleanReq accesses
system.l2.ReadCleanReq_mshr_miss_rate::total     0.997942                       # mshr miss rate for ReadCleanReq accesses
system.l2.ReadCleanReq_avg_mshr_miss_latency::.cpu.inst 65344.329897                       # average ReadCleanReq mshr miss latency
system.l2.ReadCleanReq_avg_mshr_miss_latency::total 65344.329897                       # average ReadCleanReq mshr miss latency
system.l2.ReadSharedReq_hits::.cpu.data          9061                       # number of ReadSharedReq hits
system.l2.ReadSharedReq_hits::total              9061                       # number of ReadSharedReq hits
system.l2.ReadSharedReq_misses::.cpu.data        11449                       # number of ReadSharedReq misses
system.l2.ReadSharedReq_misses::total           11449                       # number of ReadSharedReq misses
system.l2.ReadSharedReq_miss_latency::.cpu.data    978858000                       # number of ReadSharedReq miss cycles
system.l2.ReadSharedReq_miss_latency::total    978858000                       # number of ReadSharedReq miss cycles
system.l2.ReadSharedReq_accesses::.cpu.data        20510                       # number of ReadSharedReq accesses(hits+misses)
system.l2.ReadSharedReq_accesses::total         20510                       # number of ReadSharedReq accesses(hits+misses)
system.l2.ReadSharedReq_miss_rate::.cpu.data     0.558216                       # miss rate for ReadSharedReq accesses
system.l2.ReadSharedReq_miss_rate::total     0.558216                       # miss rate for ReadSharedReq accesses
system.l2.ReadSharedReq_avg_miss_latency::.cpu.data 85497.248668                       # average ReadSharedReq miss latency
system.l2.ReadSharedReq_avg_miss_latency::total 85497.248668                       # average ReadSharedReq miss latency
system.l2.ReadSharedReq_mshr_misses::.cpu.data        11449                       # number of ReadSharedReq MSHR misses
system.l2.ReadSharedReq_mshr_misses::total        11449                       # number of ReadSharedReq MSHR misses
system.l2.ReadSharedReq_mshr_miss_latency::.cpu.data    864368000                       # number of ReadSharedReq MSHR miss cycles
system.l2.ReadSharedReq_mshr_miss_latency::total    864368000                       # number of ReadSharedReq MSHR miss cycles
system.l2.ReadSharedReq_mshr_miss_rate::.cpu.data     0.558216                       # mshr miss rate for ReadSharedReq accesses
system.l2.ReadSharedReq_mshr_miss_rate::total     0.558216                       # mshr miss rate for ReadSharedReq accesses
system.l2.ReadSharedReq_avg_mshr_miss_latency::.cpu.data 75497.248668                       # average ReadSharedReq mshr miss latency
system.l2.ReadSharedReq_avg_mshr_miss_latency::total 75497.248668                       # average ReadSharedReq mshr miss latency
system.l2.power_state.pwrStateResidencyTicks::UNDEFINED 179308166500                       # Cumulative time (in ticks) in various power states
system.l2.tags.tagsinuse                 31147.684531                       # Cycle average of tags in use
system.l2.tags.total_refs                      192676                       # Total number of references to valid blocks.
system.l2.tags.sampled_refs                     91117                       # Sample count of references to valid blocks.
system.l2.tags.avg_refs                      2.114600                       # Average number of references to valid blocks.
system.l2.tags.warmup_cycle                     77000                       # Cycle when the warmup percentage was hit.
system.l2.tags.occ_blocks::.writebacks     363.337269                       # Average occupied blocks per requestor
system.l2.tags.occ_blocks::.cpu.inst        35.849782                       # Average occupied blocks per requestor
system.l2.tags.occ_blocks::.cpu.data     30748.497480                       # Average occupied blocks per requestor
system.l2.tags.occ_percent::.writebacks      0.011088                       # Average percentage of cache occupancy
system.l2.tags.occ_percent::.cpu.inst        0.001094                       # Average percentage of cache occupancy
system.l2.tags.occ_percent::.cpu.data        0.938370                       # Average percentage of cache occupancy
system.l2.tags.occ_percent::total            0.950552                       # Average percentage of cache occupancy
system.l2.tags.occ_task_id_blocks::1024         32768                       # Occupied blocks per task id
system.l2.tags.age_task_id_blocks_1024::0            2                       # Occupied blocks per task id
system.l2.tags.age_task_id_blocks_1024::1           26                       # Occupied blocks per task id
system.l2.tags.age_task_id_blocks_1024::2          327                       # Occupied blocks per task id
system.l2.tags.age_task_id_blocks_1024::3         3131                       # Occupied blocks per task id
system.l2.tags.age_task_id_blocks_1024::4        29282                       # Occupied blocks per task id
system.l2.tags.occ_task_id_percent::1024            1                       # Percentage of cache occupancy per task id
system.l2.tags.tag_accesses                    284139                       # Number of tag accesses
system.l2.tags.data_accesses                   284139                       # Number of data accesses
system.l2.tags.power_state.pwrStateResidencyTicks::UNDEFINED 179308166500                       # Cumulative time (in ticks) in various power states
system.cpu_voltage_domain.voltage                   1                       # Voltage in Volts
system.mem_ctrls.bytes_read::.cpu.inst          31040                       # Number of bytes read from this memory
system.mem_ctrls.bytes_read::.cpu.data        5646272                       # Number of bytes read from this memory
system.mem_ctrls.bytes_read::total            5677312                       # Number of bytes read from this memory
system.mem_ctrls.bytes_inst_read::.cpu.inst        31040                       # Number of instructions bytes read from this memory
system.mem_ctrls.bytes_inst_read::total         31040                       # Number of instructions bytes read from this memory
system.mem_ctrls.bytes_written::.writebacks      3510976                       # Number of bytes written to this memory
system.mem_ctrls.bytes_written::total         3510976                       # Number of bytes written to this memory
system.mem_ctrls.num_reads::.cpu.inst             485                       # Number of read requests responded to by this memory
system.mem_ctrls.num_reads::.cpu.data           88223                       # Number of read requests responded to by this memory
system.mem_ctrls.num_reads::total               88708                       # Number of read requests responded to by this memory
system.mem_ctrls.num_writes::.writebacks        54859                       # Number of write requests responded to by this memory
system.mem_ctrls.num_writes::total              54859                       # Number of write requests responded to by this memory
system.mem_ctrls.bw_read::.cpu.inst            173110                       # Total read bandwidth from this memory (bytes/s)
system.mem_ctrls.bw_read::.cpu.data          31489207                       # Total read bandwidth from this memory (bytes/s)
system.mem_ctrls.bw_read::total              31662317                       # Total read bandwidth from this memory (bytes/s)
system.mem_ctrls.bw_inst_read::.cpu.inst       173110                       # Instruction read bandwidth from this memory (bytes/s)
system.mem_ctrls.bw_inst_read::total           173110                       # Instruction read bandwidth from this memory (bytes/s)
system.mem_ctrls.bw_write::.writebacks       19580681                       # Write bandwidth from this memory (bytes/s)
system.mem_ctrls.bw_write::total             19580681                       # Write bandwidth from this memory (bytes/s)
system.mem_ctrls.bw_total::.writebacks       19580681                       # Total bandwidth to/from this memory (bytes/s)
system.mem_ctrls.bw_total::.cpu.inst           173110                       # Total bandwidth to/from this memory (bytes/s)
system.mem_ctrls.bw_total::.cpu.data         31489207                       # Total bandwidth to/from this memory (bytes/s)
system.mem_ctrls.bw_total::total             51242998                       # Total bandwidth to/from this memory (bytes/s)
system.mem_ctrls.avgPriority_.writebacks::samples     54859.00                       # Average QoS priority value for accepted requests
system.mem_ctrls.avgPriority_.cpu.inst::samples       485.00                       # Average QoS priority value for accepted requests
system.mem_ctrls.avgPriority_.cpu.data::samples     88216.00                       # Average QoS priority value for accepted requests
system.mem_ctrls.priorityMinLatency      0.000000018750                       # per QoS priority minimum request to response latency (s)
system.mem_ctrls.priorityMaxLatency      0.001081452500                       # per QoS priority maximum request to response latency (s)
system.mem_ctrls.numReadWriteTurnArounds         3097                       # Number of turnarounds from READ to WRITE
system.mem_ctrls.numWriteReadTurnArounds         3097                       # Number of turnarounds from WRITE to READ
system.mem_ctrls.numStayReadState              277653                       # Number of times bus staying in READ state
system.mem_ctrls.numStayWriteState              51831                       # Number of times bus staying in WRITE state
system.mem_ctrls.readReqs                       88708                       # Number of read requests accepted
system.mem_ctrls.writeReqs                      54859                       # Number of write requests accepted
system.mem_ctrls.readBursts                     88708                       # Number of DRAM read bursts, including those serviced by the write queue
system.mem_ctrls.writeBursts                    54859                       # Number of DRAM write bursts, including those merged in the write queue
system.mem_ctrls.servicedByWrQ                      7                       # Number of DRAM read bursts serviced by the write queue
system.mem_ctrls.mergedWrBursts                     0                       # Number of DRAM write bursts merged with an existing one
system.mem_ctrls.neitherReadNorWriteReqs            0                       # Number of requests that are neither read nor write
system.mem_ctrls.perBankRdBursts::0              5536                       # Per bank write bursts
system.mem_ctrls.perBankRdBursts::1              5576                       # Per bank write bursts
system.mem_ctrls.perBankRdBursts::2              5563                       # Per bank write bursts
system.mem_ctrls.perBankRdBursts::3              5533                       # Per bank write bursts
system.mem_ctrls.perBankRdBursts::4              5534                       # Per bank write bursts
system.mem_ctrls.perBankRdBursts::5              5471                       # Per bank write bursts
system.mem_ctrls.perBankRdBursts::6              5479                       # Per bank write bursts
system.mem_ctrls.perBankRdBursts::7              5359                       # Per bank write bursts
system.mem_ctrls.perBankRdBursts::8              5523                       # Per bank write bursts
system.mem_ctrls.perBankRdBursts::9              5348                       # Per bank write bursts
system.mem_ctrls.perBankRdBursts::10             6057                       # Per bank write bursts
system.mem_ctrls.perBankRdBursts::11             5507                       # Per bank write bursts
system.mem_ctrls.perBankRdBursts::12             5551                       # Per bank write bursts
system.mem_ctrls.perBankRdBursts::13             5593                       # Per bank write bursts
system.mem_ctrls.perBankRdBursts::14             5506                       # Per bank write bursts
system.mem_ctrls.perBankRdBursts::15             5565                       # Per bank write bursts
system.mem_ctrls.perBankWrBursts::0              3429                       # Per bank write bursts
system.mem_ctrls.perBankWrBursts::1              3498                       # Per bank write bursts
system.mem_ctrls.perBankWrBursts::2              3477                       # Per bank write bursts
system.mem_ctrls.perBankWrBursts::3              3474                       # Per bank write bursts
system.mem_ctrls.perBankWrBursts::4              3473                       # Per bank write bursts
system.mem_ctrls.perBankWrBursts::5              3344                       # Per bank write bursts
system.mem_ctrls.perBankWrBursts::6              3383                       # Per bank write bursts
system.mem_ctrls.perBankWrBursts::7              3268                       # Per bank write bursts
system.mem_ctrls.perBankWrBursts::8              3414                       # Per bank write bursts
system.mem_ctrls.perBankWrBursts::9              3287                       # Per bank write bursts
system.mem_ctrls.perBankWrBursts::10             3512                       # Per bank write bursts
system.mem_ctrls.perBankWrBursts::11             3408                       # Per bank write bursts
system.mem_ctrls.perBankWrBursts::12             3461                       # Per bank write bursts
system.mem_ctrls.perBankWrBursts::13             3479                       # Per bank write bursts
system.mem_ctrls.perBankWrBursts::14             3434                       # Per bank write bursts
system.mem_ctrls.perBankWrBursts::15             3491                       # Per bank write bursts
system.mem_ctrls.avgRdQLen                       1.00                       # Average read queue length when enqueuing
system.mem_ctrls.avgWrQLen                      22.17                       # Average write queue length when enqueuing
system.mem_ctrls.totQLat                    949089750                       # Total ticks spent queuing
system.mem_ctrls.totBusLat                  443505000                       # Total ticks spent in databus transfers
system.mem_ctrls.totMemAccLat              2612233500                       # Total ticks spent from burst creation until serviced by the DRAM
system.mem_ctrls.avgQLat                     10699.88                       # Average queueing delay per DRAM burst
system.mem_ctrls.avgBusLat                    5000.00                       # Average bus latency per DRAM burst
system.mem_ctrls.avgMemAccLat                29449.88                       # Average memory access latency per DRAM burst
system.mem_ctrls.numRdRetry                         0                       # Number of times read queue was full causing retry
system.mem_ctrls.numWrRetry                         0                       # Number of times write queue was full causing retry
system.mem_ctrls.readRowHits                    53218                       # Number of row buffer hits during reads
system.mem_ctrls.writeRowHits                   43310                       # Number of row buffer hits during writes
system.mem_ctrls.readRowHitRate                 60.00                       # Row buffer hit rate for reads
system.mem_ctrls.writeRowHitRate                78.95                       # Row buffer hit rate for writes
system.mem_ctrls.readPktSize::0                     0                       # Read request sizes (log2)
system.mem_ctrls.readPktSize::1                     0                       # Read request sizes (log2)
system.mem_ctrls.readPktSize::2                     0                       # Read request sizes (log2)
system.mem_ctrls.readPktSize::3                     0                       # Read request sizes (log2)
system.mem_ctrls.readPktSize::4                     0                       # Read request sizes (log2)
system.mem_ctrls.readPktSize::5                     0                       # Read request sizes (log2)
system.mem_ctrls.readPktSize::6                 88708                       # Read request sizes (log2)
system.mem_ctrls.writePktSize::0                    0                       # Write request sizes (log2)
system.mem_ctrls.writePktSize::1                    0                       # Write request sizes (log2)
system.mem_ctrls.writePktSize::2                    0                       # Write request sizes (log2)
system.mem_ctrls.writePktSize::3                    0                       # Write request sizes (log2)
system.mem_ctrls.writePktSize::4                    0                       # Write request sizes (log2)
system.mem_ctrls.writePktSize::5                    0                       # Write request sizes (log2)
system.mem_ctrls.writePktSize::6                54859                       # Write request sizes (log2)
system.mem_ctrls.rdQLenPdf::0                   88701                       # What read queue length does an incoming req see
system.mem_ctrls.rdQLenPdf::1                       0                       # What read queue length does an incoming req see
system.mem_ctrls.rdQLenPdf::2                       0                       # What read queue length does an incoming req see
system.mem_ctrls.rdQLenPdf::3                       0                       # What read queue length does an incoming req see
system.mem_ctrls.rdQLenPdf::4                       0                       # What read queue length does an incoming req see
system.mem_ctrls.rdQLenPdf::5                       0                       # What read queue length does an incoming req see
system.mem_ctrls.rdQLenPdf::6                       0                       # What read queue length does an incoming req see
system.mem_ctrls.rdQLenPdf::7                       0                       # What read queue length does an incoming req see
system.mem_ctrls.rdQLenPdf::8                       0                       # What read queue length does an incoming req see
system.mem_ctrls.rdQLenPdf::9                       0                       # What read queue length does an incoming req see
system.mem_ctrls.rdQLenPdf::10                      0                       # What read queue length does an incoming req see
system.mem_ctrls.rdQLenPdf::11                      0                       # What read queue length does an incoming req see
system.mem_ctrls.rdQLenPdf::12                      0                       # What read queue length does an incoming req see
system.mem_ctrls.rdQLenPdf::13                      0                       # What read queue length does an incoming req see
system.mem_ctrls.rdQLenPdf::14                      0                       # What read queue length does an incoming req see
system.mem_ctrls.rdQLenPdf::15                      0                       # What read queue length does an incoming req see
system.mem_ctrls.rdQLenPdf::16                      0                       # What read queue length does an incoming req see
system.mem_ctrls.rdQLenPdf::17                      0                       # What read queue length does an incoming req see
system.mem_ctrls.rdQLenPdf::18                      0                       # What read queue length does an incoming req see
system.mem_ctrls.rdQLenPdf::19                      0                       # What read queue length does an incoming req see
system.mem_ctrls.rdQLenPdf::20                      0                       # What read queue length does an incoming req see
system.mem_ctrls.rdQLenPdf::21                      0                       # What read queue length does an incoming req see
system.mem_ctrls.rdQLenPdf::22                      0                       # What read queue length does an incoming req see
system.mem_ctrls.rdQLenPdf::23                      0                       # What read queue length does an incoming req see
system.mem_ctrls.rdQLenPdf::24                      0                       # What read queue length does an incoming req see
system.mem_ctrls.rdQLenPdf::25                      0                       # What read queue length does an incoming req see
system.mem_ctrls.rdQLenPdf::26                      0                       # What read queue length does an incoming req see
system.mem_ctrls.rdQLenPdf::27                      0                       # What read queue length does an incoming req see
system.mem_ctrls.rdQLenPdf::28                      0                       # What read queue length does an incoming req see
system.mem_ctrls.rdQLenPdf::29                      0                       # What read queue length does an incoming req see
system.mem_ctrls.rdQLenPdf::30                      0                       # What read queue length does an incoming req see
system.mem_ctrls.rdQLenPdf::31                      0                       # What read queue length does an incoming req see
system.mem_ctrls.wrQLenPdf::0                       1                       # What write queue length does an incoming req see
system.mem_ctrls.wrQLenPdf::1                       1                       # What write queue length does an incoming req see
system.mem_ctrls.wrQLenPdf::2                       1                       # What write queue length does an incoming req see
system.mem_ctrls.wrQLenPdf::3                       1                       # What write queue length does an incoming req see
system.mem_ctrls.wrQLenPdf::4                       1                       # What write queue length does an incoming req see
system.mem_ctrls.wrQLenPdf::5                       1                       # What write queue length does an incoming req see
system.mem_ctrls.wrQLenPdf::6                       1                       # What write queue length does an incoming req see
system.mem_ctrls.wrQLenPdf::7                       1                       # What write queue length does an incoming req see
system.mem_ctrls.wrQLenPdf::8                       1                       # What write queue length does an incoming req see
system.mem_ctrls.wrQLenPdf::9                       1                       # What write queue length does an incoming req see
system.mem_ctrls.wrQLenPdf::10                      1                       # What write queue length does an incoming req see
system.mem_ctrls.wrQLenPdf::11                      1                       # What write queue length does an incoming req see
system.mem_ctrls.wrQLenPdf::12                      1                       # What write queue length does an incoming req see
system.mem_ctrls.wrQLenPdf::13                      1                       # What write queue length does an incoming req see
system.mem_ctrls.wrQLenPdf::14                      1                       # What write queue length does an incoming req see
system.mem_ctrls.wrQLenPdf::15                   2610                       # What write queue length does an incoming req see
system.mem_ctrls.wrQLenPdf::16                   2610                       # What write queue length does an incoming req see
system.mem_ctrls.wrQLenPdf::17                   3097                       # What write queue length does an incoming req see
system.mem_ctrls.wrQLenPdf::18                   3098                       # What write queue length does an incoming req see
system.mem_ctrls.wrQLenPdf::19                   3100                       # What write queue length does an incoming req see
system.mem_ctrls.wrQLenPdf::20                   3098                       # What write queue length does an incoming req see
system.mem_ctrls.wrQLenPdf::21                   3100                       # What write queue length does an incoming req see
system.mem_ctrls.wrQLenPdf::22                   3098                       # What write queue length does an incoming req see
system.mem_ctrls.wrQLenPdf::23                   3098                       # What write queue length does an incoming req see
system.mem_ctrls.wrQLenPdf::24                   3098                       # What write queue length does an incoming req see
system.mem_ctrls.wrQLenPdf::25                   3110                       # What write queue length does an incoming req see
system.mem_ctrls.wrQLenPdf::26                   3118                       # What write queue length does an incoming req see
system.mem_ctrls.wrQLenPdf::27                   3107                       # What write queue length does an incoming req see
system.mem_ctrls.wrQLenPdf::28                   3111                       # What write queue length does an incoming req see
system.mem_ctrls.wrQLenPdf::29                   3097                       # What write queue length does an incoming req see
system.mem_ctrls.wrQLenPdf::30                   3098                       # What write queue length does an incoming req see
system.mem_ctrls.wrQLenPdf::31                   3098                       # What write queue length does an incoming req see
system.mem_ctrls.wrQLenPdf::32                   3097                       # What write queue length does an incoming req see
system.mem_ctrls.wrQLenPdf::33                      1                       # What write queue length does an incoming req see
system.mem_ctrls.wrQLenPdf::34                      0                       # What write queue length does an incoming req see
system.mem_ctrls.wrQLenPdf::35                      0                       # What write queue length does an incoming req see
system.mem_ctrls.wrQLenPdf::36                      0                       # What write queue length does an incoming req see
system.mem_ctrls.wrQLenPdf::37                      0                       # What write queue length does an incoming req see
system.mem_ctrls.wrQLenPdf::38                      0                       # What write queue length does an incoming req see
system.mem_ctrls.wrQLenPdf::39                      0                       # What write queue length does an incoming req see
system.mem_ctrls.wrQLenPdf::40                      0                       # What write queue length does an incoming req see
system.mem_ctrls.wrQLenPdf::41                      0                       # What write queue length does an incoming req see
system.mem_ctrls.wrQLenPdf::42                      0                       # What write queue length does an incoming req see
system.mem_ctrls.wrQLenPdf::43                      0                       # What write queue length does an incoming req see
system.mem_ctrls.wrQLenPdf::44                      0                       # What write queue length does an incoming req see
system.mem_ctrls.wrQLenPdf::45                      0                       # What write queue length does an incoming req see
system.mem_ctrls.wrQLenPdf::46                      0                       # What write queue length does an incoming req see
system.mem_ctrls.wrQLenPdf::47                      0                       # What write queue length does an incoming req see
system.mem_ctrls.wrQLenPdf::48                      0                       # What write queue length does an incoming req see
system.mem_ctrls.wrQLenPdf::49                      0                       # What write queue length does an incoming req see
system.mem_ctrls.wrQLenPdf::50                      0                       # What write queue length does an incoming req see
system.mem_ctrls.wrQLenPdf::51                      0                       # What write queue length does an incoming req see
system.mem_ctrls.wrQLenPdf::52                      0                       # What write queue length does an incoming req see
system.mem_ctrls.wrQLenPdf::53                      0                       # What write queue length does an incoming req see
system.mem_ctrls.wrQLenPdf::54                      0                       # What write queue length does an incoming req see
system.mem_ctrls.wrQLenPdf::55                      0                       # What write queue length does an incoming req see
system.mem_ctrls.wrQLenPdf::56                      0                       # What write queue length does an incoming req see
system.mem_ctrls.wrQLenPdf::57                      0                       # What write queue length does an incoming req see
system.mem_ctrls.wrQLenPdf::58                      0                       # What write queue length does an incoming req see
system.mem_ctrls.wrQLenPdf::59                      0                       # What write queue length does an incoming req see
system.mem_ctrls.wrQLenPdf::60                      0                       # What write queue length does an incoming req see
system.mem_ctrls.wrQLenPdf::61                      0                       # What write queue length does an incoming req see
system.mem_ctrls.wrQLenPdf::62                      0                       # What write queue length does an incoming req see
system.mem_ctrls.wrQLenPdf::63                      0                       # What write queue length does an incoming req see
system.mem_ctrls.bytesPerActivate::samples        47004                       # Bytes accessed per row activation
system.mem_ctrls.bytesPerActivate::mean    195.431197                       # Bytes accessed per row activation
system.mem_ctrls.bytesPerActivate::gmean   133.119875                       # Bytes accessed per row activation
system.mem_ctrls.bytesPerActivate::stdev   226.302551                       # Bytes accessed per row activation
system.mem_ctrls.bytesPerActivate::0-127        17158     36.50%     36.50% # Bytes accessed per row activation
system.mem_ctrls.bytesPerActivate::128-255        21484     45.71%     82.21% # Bytes accessed per row activation
system.mem_ctrls.bytesPerActivate::256-383         1293      2.75%     84.96% # Bytes accessed per row activation
system.mem_ctrls.bytesPerActivate::384-511         2328      4.95%     89.91% # Bytes accessed per row activation
system.mem_ctrls.bytesPerActivate::512-639         1264      2.69%     92.60% # Bytes accessed per row activation
system.mem_ctrls.bytesPerActivate::640-767          795      1.69%     94.29% # Bytes accessed per row activation
system.mem_ctrls.bytesPerActivate::768-895          565      1.20%     95.50% # Bytes accessed per row activation
system.mem_ctrls.bytesPerActivate::896-1023          615      1.31%     96.80% # Bytes accessed per row activation
system.mem_ctrls.bytesPerActivate::1024-1151         1502      3.20%    100.00% # Bytes accessed per row activation
system.mem_ctrls.bytesPerActivate::total        47004                       # Bytes accessed per row activation
system.mem_ctrls.rdPerTurnAround::samples         3097                       # Reads before turning the bus around for writes
system.mem_ctrls.rdPerTurnAround::mean      28.637391                       # Reads before turning the bus around for writes
system.mem_ctrls.rdPerTurnAround::gmean     17.923705                       # Reads before turning the bus around for writes
system.mem_ctrls.rdPerTurnAround::stdev    582.804962                       # Reads before turning the bus around for writes
system.mem_ctrls.rdPerTurnAround::0-1023         3096     99.97%     99.97% # Reads before turning the bus around for writes
system.mem_ctrls.rdPerTurnAround::31744-32767            1      0.03%    100.00% # Reads before turning the bus around for writes
system.mem_ctrls.rdPerTurnAround::total          3097                       # Reads before turning the bus around for writes
system.mem_ctrls.wrPerTurnAround::samples         3097                       # Writes before turning the bus around for reads
system.mem_ctrls.wrPerTurnAround::mean      17.704876                       # Writes before turning the bus around for reads
system.mem_ctrls.wrPerTurnAround::gmean     17.688149                       # Writes before turning the bus around for reads
system.mem_ctrls.wrPerTurnAround::stdev      0.750593                       # Writes before turning the bus around for reads
system.mem_ctrls.wrPerTurnAround::16              488     15.76%     15.76% # Writes before turning the bus around for reads
system.mem_ctrls.wrPerTurnAround::18             2547     82.24%     98.00% # Writes before turning the bus around for reads
system.mem_ctrls.wrPerTurnAround::19               62      2.00%    100.00% # Writes before turning the bus around for reads
system.mem_ctrls.wrPerTurnAround::total          3097                       # Writes before turning the bus around for reads
system.mem_ctrls.bytesReadDRAM                5676864                       # Total number of bytes read from DRAM
system.mem_ctrls.bytesReadWrQ                     448                       # Total number of bytes read from write queue
system.mem_ctrls.bytesWritten                 3509248                       # Total number of bytes written to DRAM
system.mem_ctrls.bytesReadSys                 5677312                       # Total read bytes from the system interface side
system.mem_ctrls.bytesWrittenSys              3510976                       # Total written bytes from the system interface side
system.mem_ctrls.avgRdBW                        31.66                       # Average DRAM read bandwidth in MiByte/s
system.mem_ctrls.avgWrBW                        19.57                       # Average achieved write bandwidth in MiByte/s
system.mem_ctrls.avgRdBWSys                     31.66                       # Average system read bandwidth in MiByte/s
system.mem_ctrls.avgWrBWSys                     19.58                       # Average system write bandwidth in MiByte/s
system.mem_ctrls.peakBW                      12800.00                       # Theoretical peak bandwidth in MiByte/s
system.mem_ctrls.busUtil                         0.40                       # Data bus utilization in percentage
system.mem_ctrls.busUtilRead                     0.25                       # Data bus utilization in percentage for reads
system.mem_ctrls.busUtilWrite                    0.15                       # Data bus utilization in percentage for writes
system.mem_ctrls.totGap                  179304987500                       # Total gap between requests
system.mem_ctrls.avgGap                    1248928.98                       # Average gap between requests
system.mem_ctrls.masterReadBytes::.cpu.inst        31040                       # Per-master bytes read from memory
system.mem_ctrls.masterReadBytes::.cpu.data      5645824                       # Per-master bytes read from memory
system.mem_ctrls.masterWriteBytes::.writebacks      3509248                       # Per-master bytes write to memory
system.mem_ctrls.masterReadRate::.cpu.inst 173109.795308737375                       # Per-master bytes read from memory rate (Bytes/sec)
system.mem_ctrls.masterReadRate::.cpu.data 31486708.665887784213                       # Per-master bytes read from memory rate (Bytes/sec)
system.mem_ctrls.masterWriteRate::.writebacks 19571043.910038530827                       # Per-master bytes write to memory rate (Bytes/sec)
system.mem_ctrls.masterReadAccesses::.cpu.inst          485                       # Per-master read serviced memory accesses
system.mem_ctrls.masterReadAccesses::.cpu.data        88223                       # Per-master read serviced memory accesses
system.mem_ctrls.masterWriteAccesses::.writebacks        54859                       # Per-master write serviced memory accesses
system.mem_ctrls.masterReadTotalLat::.cpu.inst     11889000                       # Per-master read total memory access latency
system.mem_ctrls.masterReadTotalLat::.cpu.data   2600344500                       # Per-master read total memory access latency
system.mem_ctrls.masterWriteTotalLat::.writebacks 3811988484500                       # Per-master write total memory access latency
system.mem_ctrls.masterReadAvgLat::.cpu.inst     24513.40                       # Per-master read average memory access latency
system.mem_ctrls.masterReadAvgLat::.cpu.data     29474.68                       # Per-master read average memory access latency
system.mem_ctrls.masterWriteAvgLat::.writebacks  69487020.99                       # Per-master write average memory access latency
system.mem_ctrls.pageHitRate                    67.24                       # Row buffer hit rate, read and write combined
system.mem_ctrls.rank1.actEnergy            171102960                       # Energy for activate commands per rank (pJ)
system.mem_ctrls.rank1.preEnergy             90943380                       # Energy for precharge commands per rank (pJ)
system.mem_ctrls.rank1.readEnergy           318801000                       # Energy for read commands per rank (pJ)
system.mem_ctrls.rank1.writeEnergy          143476920                       # Energy for write commands per rank (pJ)
system.mem_ctrls.rank1.refreshEnergy     14153929920.000002                       # Energy for refresh commands per rank (pJ)
system.mem_ctrls.rank1.actBackEnergy      38776777950                       # Energy for active background per rank (pJ)
system.mem_ctrls.rank1.preBackEnergy      36200207520                       # Energy for precharge background per rank (pJ)
system.mem_ctrls.rank1.actPowerDownEnergy            0                       # Energy for active power-down per rank (pJ)
system.mem_ctrls.rank1.prePowerDownEnergy            0                       # Energy for precharge power-down per rank (pJ)
system.mem_ctrls.rank1.selfRefreshEnergy            0                       # Energy for self refresh per rank (pJ)
system.mem_ctrls.rank1.totalEnergy        89855239650                       # Total energy per rank (pJ)
system.mem_ctrls.rank1.averagePower        501.121847                       # Core power per rank (mW)
system.mem_ctrls.rank1.totalIdleTime                0                       # Total Idle time Per DRAM Rank
system.mem_ctrls.rank1.memoryStateTime::IDLE  93734011250                       # Time in different power states
system.mem_ctrls.rank1.memoryStateTime::REF   5987280000                       # Time in different power states
system.mem_ctrls.rank1.memoryStateTime::SREF            0                       # Time in different power states
system.mem_ctrls.rank1.memoryStateTime::PRE_PDN            0                       # Time in different power states
system.mem_ctrls.rank1.memoryStateTime::ACT  79586875250                       # Time in different power states
system.mem_ctrls.rank1.memoryStateTime::ACT_PDN            0                       # Time in different power states
system.mem_ctrls.rank0.actEnergy            164512740                       # Energy for activate commands per rank (pJ)
system.mem_ctrls.rank0.preEnergy             87436800                       # Energy for precharge commands per rank (pJ)
system.mem_ctrls.rank0.readEnergy           314524140                       # Energy for read commands per rank (pJ)
system.mem_ctrls.rank0.writeEnergy          142746120                       # Energy for write commands per rank (pJ)
system.mem_ctrls.rank0.refreshEnergy     14153929920.000002                       # Energy for refresh commands per rank (pJ)
system.mem_ctrls.rank0.actBackEnergy      38403756840                       # Energy for active background per rank (pJ)
system.mem_ctrls.rank0.preBackEnergy      36514330560                       # Energy for precharge background per rank (pJ)
system.mem_ctrls.rank0.actPowerDownEnergy            0                       # Energy for active power-down per rank (pJ)
system.mem_ctrls.rank0.prePowerDownEnergy            0                       # Energy for precharge power-down per rank (pJ)
system.mem_ctrls.rank0.selfRefreshEnergy            0                       # Energy for self refresh per rank (pJ)
system.mem_ctrls.rank0.totalEnergy        89781237120                       # Total energy per rank (pJ)
system.mem_ctrls.rank0.averagePower        500.709136                       # Core power per rank (mW)
system.mem_ctrls.rank0.totalIdleTime                0                       # Total Idle time Per DRAM Rank
system.mem_ctrls.rank0.memoryStateTime::IDLE  94555432750                       # Time in different power states
system.mem_ctrls.rank0.memoryStateTime::REF   5987280000                       # Time in different power states
system.mem_ctrls.rank0.memoryStateTime::SREF            0                       # Time in different power states
system.mem_ctrls.rank0.memoryStateTime::PRE_PDN            0                       # Time in different power states
system.mem_ctrls.rank0.memoryStateTime::ACT  78765453750                       # Time in different power states
system.mem_ctrls.rank0.memoryStateTime::ACT_PDN            0                       # Time in different power states
system.mem_ctrls.power_state.pwrStateResidencyTicks::UNDEFINED 179308166500                       # Cumulative time (in ticks) in various power states
system.cpu_clk_domain.clock                       500                       # Clock period in ticks
system.cpu.icache.demand_hits::.cpu.inst    137064335                       # number of demand (read+write) hits
system.cpu.icache.demand_hits::total        137064335                       # number of demand (read+write) hits
system.cpu.icache.overall_hits::.cpu.inst    137064335                       # number of overall hits
system.cpu.icache.overall_hits::total       137064335                       # number of overall hits
system.cpu.icache.demand_misses::.cpu.inst          486                       # number of demand (read+write) misses
system.cpu.icache.demand_misses::total            486                       # number of demand (read+write) misses
system.cpu.icache.overall_misses::.cpu.inst          486                       # number of overall misses
system.cpu.icache.overall_misses::total           486                       # number of overall misses
system.cpu.icache.demand_miss_latency::.cpu.inst     37768500                       # number of demand (read+write) miss cycles
system.cpu.icache.demand_miss_latency::total     37768500                       # number of demand (read+write) miss cycles
system.cpu.icache.overall_miss_latency::.cpu.inst     37768500                       # number of overall miss cycles
system.cpu.icache.overall_miss_latency::total     37768500                       # number of overall miss cycles
system.cpu.icache.demand_accesses::.cpu.inst    137064821                       # number of demand (read+write) accesses
system.cpu.icache.demand_accesses::total    137064821                       # number of demand (read+write) accesses
system.cpu.icache.overall_accesses::.cpu.inst    137064821                       # number of overall (read+write) accesses
system.cpu.icache.overall_accesses::total    137064821                       # number of overall (read+write) accesses
system.cpu.icache.demand_miss_rate::.cpu.inst     0.000004                       # miss rate for demand accesses
system.cpu.icache.demand_miss_rate::total     0.000004                       # miss rate for demand accesses
system.cpu.icache.overall_miss_rate::.cpu.inst     0.000004                       # miss rate for overall accesses
system.cpu.icache.overall_miss_rate::total     0.000004                       # miss rate for overall accesses
system.cpu.icache.demand_avg_miss_latency::.cpu.inst 77712.962963                       # average overall miss latency
system.cpu.icache.demand_avg_miss_latency::total 77712.962963                       # average overall miss latency
system.cpu.icache.overall_avg_miss_latency::.cpu.inst 77712.962963                       # average overall miss latency
system.cpu.icache.overall_avg_miss_latency::total 77712.962963                       # average overall miss latency
system.cpu.icache.blocked_cycles::no_mshrs            0                       # number of cycles access was blocked
system.cpu.icache.blocked_cycles::no_targets            0                       # number of cycles access was blocked
system.cpu.icache.blocked::no_mshrs                 0                       # number of cycles access was blocked
system.cpu.icache.blocked::no_targets               0                       # number of cycles access was blocked
system.cpu.icache.avg_blocked_cycles::no_mshrs          nan                       # average number of cycles each access was blocked
system.cpu.icache.avg_blocked_cycles::no_targets          nan                       # average number of cycles each access was blocked
system.cpu.icache.writebacks::.writebacks            9                       # number of writebacks
system.cpu.icache.writebacks::total                 9                       # number of writebacks
system.cpu.icache.demand_mshr_misses::.cpu.inst          486                       # number of demand (read+write) MSHR misses
system.cpu.icache.demand_mshr_misses::total          486                       # number of demand (read+write) MSHR misses
system.cpu.icache.overall_mshr_misses::.cpu.inst          486                       # number of overall MSHR misses
system.cpu.icache.overall_mshr_misses::total          486                       # number of overall MSHR misses
system.cpu.icache.demand_mshr_miss_latency::.cpu.inst     37282500                       # number of demand (read+write) MSHR miss cycles
system.cpu.icache.demand_mshr_miss_latency::total     37282500                       # number of demand (read+write) MSHR miss cycles
system.cpu.icache.overall_mshr_miss_latency::.cpu.inst     37282500                       # number of overall MSHR miss cycles
[...]
system.cpu.icache.ReadReq_mshr_miss_latency::total     37282500                       # number of ReadReq MSHR miss cycles
system.cpu.icache.ReadReq_mshr_miss_rate::.cpu.inst     0.000004                       # mshr miss rate for ReadReq accesses
system.cpu.icache.ReadReq_mshr_miss_rate::total     0.000004                       # mshr miss rate for ReadReq accesses
system.cpu.icache.ReadReq_avg_mshr_miss_latency::.cpu.inst 76712.962963                       # average ReadReq mshr miss latency
system.cpu.icache.ReadReq_avg_mshr_miss_latency::total 76712.962963                       # average ReadReq mshr miss latency
system.cpu.icache.power_state.pwrStateResidencyTicks::UNDEFINED 179308166500                       # Cumulative time (in ticks) in various power states
system.cpu.icache.tags.tagsinuse           475.071577                       # Cycle average of tags in use
system.cpu.icache.tags.total_refs           137064821                       # Total number of references to valid blocks.
system.cpu.icache.tags.sampled_refs               486                       # Sample count of references to valid blocks.
system.cpu.icache.tags.avg_refs          282026.380658                       # Average number of references to valid blocks.
system.cpu.icache.tags.warmup_cycle             87500                       # Cycle when the warmup percentage was hit.
system.cpu.icache.tags.occ_blocks::.cpu.inst   475.071577                       # Average occupied blocks per requestor
system.cpu.icache.tags.occ_percent::.cpu.inst     0.231969                       # Average percentage of cache occupancy
system.cpu.icache.tags.occ_percent::total     0.231969                       # Average percentage of cache occupancy
system.cpu.icache.tags.occ_task_id_blocks::1024          477                       # Occupied blocks per task id
system.cpu.icache.tags.age_task_id_blocks_1024::4          477                       # Occupied blocks per task id
system.cpu.icache.tags.occ_task_id_percent::1024     0.232910                       # Percentage of cache occupancy per task id
system.cpu.icache.tags.tag_accesses         274130128                       # Number of tag accesses
system.cpu.icache.tags.data_accesses        274130128                       # Number of data accesses
system.cpu.icache.tags.power_state.pwrStateResidencyTicks::UNDEFINED 179308166500                       # Cumulative time (in ticks) in various power states
system.cpu.dtb.walker.power_state.pwrStateResidencyTicks::UNDEFINED 179308166500                       # Cumulative time (in ticks) in various power states
system.cpu.interrupts.clk_domain.clock           8000                       # Clock period in ticks
system.cpu.itb_walker_cache.blocked_cycles::no_mshrs            0                       # number of cycles access was blocked
system.cpu.itb_walker_cache.blocked_cycles::no_targets            0                       # number of cycles access was blocked
system.cpu.itb_walker_cache.blocked::no_mshrs            0                       # number of cycles access was blocked
system.cpu.itb_walker_cache.blocked::no_targets            0                       # number of cycles access was blocked
system.cpu.itb_walker_cache.avg_blocked_cycles::no_mshrs          nan                       # average number of cycles each access was blocked
system.cpu.itb_walker_cache.avg_blocked_cycles::no_targets          nan                       # average number of cycles each access was blocked
system.cpu.itb_walker_cache.replacements            0                       # number of replacements
system.cpu.itb_walker_cache.power_state.pwrStateResidencyTicks::UNDEFINED 179308166500                       # Cumulative time (in ticks) in various power states
system.cpu.itb_walker_cache.tags.tagsinuse            0                       # Cycle average of tags in use
system.cpu.itb_walker_cache.tags.total_refs            0                       # Total number of references to valid blocks.
system.cpu.itb_walker_cache.tags.sampled_refs            0                       # Sample count of references to valid blocks.
system.cpu.itb_walker_cache.tags.avg_refs          nan                       # Average number of references to valid blocks.
system.cpu.itb_walker_cache.tags.warmup_cycle            0                       # Cycle when the warmup percentage was hit.
system.cpu.itb_walker_cache.tags.tag_accesses            0                       # Number of tag accesses
system.cpu.itb_walker_cache.tags.data_accesses            0                       # Number of data accesses
system.cpu.itb_walker_cache.tags.power_state.pwrStateResidencyTicks::UNDEFINED 179308166500                       # Cumulative time (in ticks) in various power states
system.cpu.itb.walker.power_state.pwrStateResidencyTicks::UNDEFINED 179308166500                       # Cumulative time (in ticks) in various power states
system.cpu.dtb_walker_cache.blocked_cycles::no_mshrs            0                       # number of cycles access was blocked
system.cpu.dtb_walker_cache.blocked_cycles::no_targets            0                       # number of cycles access was blocked
system.cpu.dtb_walker_cache.blocked::no_mshrs            0                       # number of cycles access was blocked
system.cpu.dtb_walker_cache.blocked::no_targets            0                       # number of cycles access was blocked
system.cpu.dtb_walker_cache.avg_blocked_cycles::no_mshrs          nan                       # average number of cycles each access was blocked
system.cpu.dtb_walker_cache.avg_blocked_cycles::no_targets          nan                       # average number of cycles each access was blocked
system.cpu.dtb_walker_cache.replacements            0                       # number of replacements
system.cpu.dtb_walker_cache.power_state.pwrStateResidencyTicks::UNDEFINED 179308166500                       # Cumulative time (in ticks) in various power states
system.cpu.dtb_walker_cache.tags.tagsinuse            0                       # Cycle average of tags in use
system.cpu.dtb_walker_cache.tags.total_refs            0                       # Total number of references to valid blocks.
system.cpu.dtb_walker_cache.tags.sampled_refs            0                       # Sample count of references to valid blocks.
system.cpu.dtb_walker_cache.tags.avg_refs          nan                       # Average number of references to valid blocks.
system.cpu.dtb_walker_cache.tags.warmup_cycle            0                       # Cycle when the warmup percentage was hit.
system.cpu.dtb_walker_cache.tags.tag_accesses            0                       # Number of tag accesses
system.cpu.dtb_walker_cache.tags.data_accesses            0                       # Number of data accesses
system.cpu.dtb_walker_cache.tags.power_state.pwrStateResidencyTicks::UNDEFINED 179308166500                       # Cumulative time (in ticks) in various power states
system.cpu.dcache.demand_hits::.cpu.data     34781000                       # number of demand (read+write) hits
system.cpu.dcache.demand_hits::total         34781000                       # number of demand (read+write) hits
system.cpu.dcache.overall_hits::.cpu.data     34781000                       # number of overall hits
system.cpu.dcache.overall_hits::total        34781000                       # number of overall hits
system.cpu.dcache.demand_misses::.cpu.data        97288                       # number of demand (read+write) misses
system.cpu.dcache.demand_misses::total          97288                       # number of demand (read+write) misses
system.cpu.dcache.overall_misses::.cpu.data        97288                       # number of overall misses
system.cpu.dcache.overall_misses::total         97288                       # number of overall misses
system.cpu.dcache.demand_miss_latency::.cpu.data   7428839000                       # number of demand (read+write) miss cycles
system.cpu.dcache.demand_miss_latency::total   7428839000                       # number of demand (read+write) miss cycles
system.cpu.dcache.overall_miss_latency::.cpu.data   7428839000                       # number of overall miss cycles
system.cpu.dcache.overall_miss_latency::total   7428839000                       # number of overall miss cycles
system.cpu.dcache.demand_accesses::.cpu.data     34878288                       # number of demand (read+write) accesses
system.cpu.dcache.demand_accesses::total     34878288                       # number of demand (read+write) accesses
system.cpu.dcache.overall_accesses::.cpu.data     34878288                       # number of overall (read+write) accesses
system.cpu.dcache.overall_accesses::total     34878288                       # number of overall (read+write) accesses
system.cpu.dcache.demand_miss_rate::.cpu.data     0.002789                       # miss rate for demand accesses
system.cpu.dcache.demand_miss_rate::total     0.002789                       # miss rate for demand accesses
system.cpu.dcache.overall_miss_rate::.cpu.data     0.002789                       # miss rate for overall accesses
system.cpu.dcache.overall_miss_rate::total     0.002789                       # miss rate for overall accesses
system.cpu.dcache.demand_avg_miss_latency::.cpu.data 76359.252940                       # average overall miss latency
system.cpu.dcache.demand_avg_miss_latency::total 76359.252940                       # average overall miss latency
system.cpu.dcache.overall_avg_miss_latency::.cpu.data 76359.252940                       # average overall miss latency
system.cpu.dcache.overall_avg_miss_latency::total 76359.252940                       # average overall miss latency
system.cpu.dcache.blocked_cycles::no_mshrs            0                       # number of cycles access was blocked
system.cpu.dcache.blocked_cycles::no_targets            0                       # number of cycles access was blocked
system.cpu.dcache.blocked::no_mshrs                 0                       # number of cycles access was blocked
system.cpu.dcache.blocked::no_targets               0                       # number of cycles access was blocked
system.cpu.dcache.avg_blocked_cycles::no_mshrs          nan                       # average number of cycles each access was blocked
system.cpu.dcache.avg_blocked_cycles::no_targets          nan                       # average number of cycles each access was blocked
system.cpu.dcache.writebacks::.writebacks        93119                       # number of writebacks
system.cpu.dcache.writebacks::total             93119                       # number of writebacks
system.cpu.dcache.demand_mshr_misses::.cpu.data        97288                       # number of demand (read+write) MSHR misses
system.cpu.dcache.demand_mshr_misses::total        97288                       # number of demand (read+write) MSHR misses
system.cpu.dcache.overall_mshr_misses::.cpu.data        97288                       # number of overall MSHR misses
system.cpu.dcache.overall_mshr_misses::total        97288                       # number of overall MSHR misses
system.cpu.dcache.demand_mshr_miss_latency::.cpu.data   7331551000                       # number of demand (read+write) MSHR miss cycles
system.cpu.dcache.demand_mshr_miss_latency::total   7331551000                       # number of demand (read+write) MSHR miss cycles
system.cpu.dcache.overall_mshr_miss_latency::.cpu.data   7331551000                       # number of overall MSHR miss cycles
system.cpu.dcache.overall_mshr_miss_latency::total   7331551000                       # number of overall MSHR miss cycles
system.cpu.dcache.demand_mshr_miss_rate::.cpu.data     0.002789                       # mshr miss rate for demand accesses
system.cpu.dcache.demand_mshr_miss_rate::total     0.002789                       # mshr miss rate for demand accesses
system.cpu.dcache.overall_mshr_miss_rate::.cpu.data     0.002789                       # mshr miss rate for overall accesses
system.cpu.dcache.overall_mshr_miss_rate::total     0.002789                       # mshr miss rate for overall accesses
system.cpu.dcache.demand_avg_mshr_miss_latency::.cpu.data 75359.252940                       # average overall mshr miss latency
system.cpu.dcache.demand_avg_mshr_miss_latency::total 75359.252940                       # average overall mshr miss latency
system.cpu.dcache.overall_avg_mshr_miss_latency::.cpu.data 75359.252940                       # average overall mshr miss latency
system.cpu.dcache.overall_avg_mshr_miss_latency::total 75359.252940                       # average overall mshr miss latency
system.cpu.dcache.replacements                  95240                       # number of replacements
system.cpu.dcache.ReadReq_hits::.cpu.data     21029667                       # number of ReadReq hits
system.cpu.dcache.ReadReq_hits::total        21029667                       # number of ReadReq hits
system.cpu.dcache.ReadReq_misses::.cpu.data        20510                       # number of ReadReq misses
system.cpu.dcache.ReadReq_misses::total         20510                       # number of ReadReq misses
system.cpu.dcache.ReadReq_miss_latency::.cpu.data   1125273500                       # number of ReadReq miss cycles
system.cpu.dcache.ReadReq_miss_latency::total   1125273500                       # number of ReadReq miss cycles
system.cpu.dcache.ReadReq_accesses::.cpu.data     21050177                       # number of ReadReq accesses(hits+misses)
system.cpu.dcache.ReadReq_accesses::total     21050177                       # number of ReadReq accesses(hits+misses)
system.cpu.dcache.ReadReq_miss_rate::.cpu.data     0.000974                       # miss rate for ReadReq accesses
system.cpu.dcache.ReadReq_miss_rate::total     0.000974                       # miss rate for ReadReq accesses
system.cpu.dcache.ReadReq_avg_miss_latency::.cpu.data 54864.627011                       # average ReadReq miss latency
system.cpu.dcache.ReadReq_avg_miss_latency::total 54864.627011                       # average ReadReq miss latency
system.cpu.dcache.ReadReq_mshr_misses::.cpu.data        20510                       # number of ReadReq MSHR misses
system.cpu.dcache.ReadReq_mshr_misses::total        20510                       # number of ReadReq MSHR misses
system.cpu.dcache.ReadReq_mshr_miss_latency::.cpu.data   1104763500                       # number of ReadReq MSHR miss cycles
system.cpu.dcache.ReadReq_mshr_miss_latency::total   1104763500                       # number of ReadReq MSHR miss cycles
system.cpu.dcache.ReadReq_mshr_miss_rate::.cpu.data     0.000974                       # mshr miss rate for ReadReq accesses
system.cpu.dcache.ReadReq_mshr_miss_rate::total     0.000974                       # mshr miss rate for ReadReq accesses
system.cpu.dcache.ReadReq_avg_mshr_miss_latency::.cpu.data 53864.627011                       # average ReadReq mshr miss latency
system.cpu.dcache.ReadReq_avg_mshr_miss_latency::total 53864.627011                       # average ReadReq mshr miss latency
system.cpu.dcache.WriteReq_hits::.cpu.data     13751333                       # number of WriteReq hits
system.cpu.dcache.WriteReq_hits::total       13751333                       # number of WriteReq hits
system.cpu.dcache.WriteReq_misses::.cpu.data        76778                       # number of WriteReq misses
system.cpu.dcache.WriteReq_misses::total        76778                       # number of WriteReq misses
system.cpu.dcache.WriteReq_miss_latency::.cpu.data   6303565500                       # number of WriteReq miss cycles
system.cpu.dcache.WriteReq_miss_latency::total   6303565500                       # number of WriteReq miss cycles
system.cpu.dcache.WriteReq_accesses::.cpu.data     13828111                       # number of WriteReq accesses(hits+misses)
system.cpu.dcache.WriteReq_accesses::total     13828111                       # number of WriteReq accesses(hits+misses)
system.cpu.dcache.WriteReq_miss_rate::.cpu.data     0.005552                       # miss rate for WriteReq accesses
system.cpu.dcache.WriteReq_miss_rate::total     0.005552                       # miss rate for WriteReq accesses
system.cpu.dcache.WriteReq_avg_miss_latency::.cpu.data 82101.194353                       # average WriteReq miss latency
system.cpu.dcache.WriteReq_avg_miss_latency::total 82101.194353                       # average WriteReq miss latency
system.cpu.dcache.WriteReq_mshr_misses::.cpu.data        76778                       # number of WriteReq MSHR misses
system.cpu.dcache.WriteReq_mshr_misses::total        76778                       # number of WriteReq MSHR misses
system.cpu.dcache.WriteReq_mshr_miss_latency::.cpu.data   6226787500                       # number of WriteReq MSHR miss cycles
system.cpu.dcache.WriteReq_mshr_miss_latency::total   6226787500                       # number of WriteReq MSHR miss cycles
system.cpu.dcache.WriteReq_mshr_miss_rate::.cpu.data     0.005552                       # mshr miss rate for WriteReq accesses
system.cpu.dcache.WriteReq_mshr_miss_rate::total     0.005552                       # mshr miss rate for WriteReq accesses
system.cpu.dcache.WriteReq_avg_mshr_miss_latency::.cpu.data 81101.194353                       # average WriteReq mshr miss latency
system.cpu.dcache.WriteReq_avg_mshr_miss_latency::total 81101.194353                       # average WriteReq mshr miss latency
system.cpu.dcache.power_state.pwrStateResidencyTicks::UNDEFINED 179308166500                       # Cumulative time (in ticks) in various power states
system.cpu.dcache.tags.tagsinuse          2041.682925                       # Cycle average of tags in use
system.cpu.dcache.tags.total_refs            34878288                       # Total number of references to valid blocks.
system.cpu.dcache.tags.sampled_refs             97288                       # Sample count of references to valid blocks.
system.cpu.dcache.tags.avg_refs            358.505551                       # Average number of references to valid blocks.
system.cpu.dcache.tags.warmup_cycle            175500                       # Cycle when the warmup percentage was hit.
system.cpu.dcache.tags.occ_blocks::.cpu.data  2041.682925                       # Average occupied blocks per requestor
system.cpu.dcache.tags.occ_percent::.cpu.data     0.996915                       # Average percentage of cache occupancy
system.cpu.dcache.tags.occ_percent::total     0.996915                       # Average percentage of cache occupancy
system.cpu.dcache.tags.occ_task_id_blocks::1024         2048                       # Occupied blocks per task id
system.cpu.dcache.tags.age_task_id_blocks_1024::0            2                       # Occupied blocks per task id
system.cpu.dcache.tags.age_task_id_blocks_1024::1           30                       # Occupied blocks per task id
system.cpu.dcache.tags.age_task_id_blocks_1024::2          394                       # Occupied blocks per task id
system.cpu.dcache.tags.age_task_id_blocks_1024::3         1528                       # Occupied blocks per task id
system.cpu.dcache.tags.age_task_id_blocks_1024::4           94                       # Occupied blocks per task id
system.cpu.dcache.tags.occ_task_id_percent::1024            1                       # Percentage of cache occupancy per task id
system.cpu.dcache.tags.tag_accesses          69853864                       # Number of tag accesses
system.cpu.dcache.tags.data_accesses         69853864                       # Number of data accesses
system.cpu.dcache.tags.power_state.pwrStateResidencyTicks::UNDEFINED 179308166500                       # Cumulative time (in ticks) in various power states
system.cpu.power_state.numTransitions               1                       # Number of power state transitions
system.cpu.power_state.pwrStateResidencyTicks::ON 179308166500                       # Cumulative time (in ticks) in various power states

---------- End Simulation Statistics   ----------
