
---------- Begin Simulation Statistics ----------
final_tick                               898238116500                       # Number of ticks from beginning of simulation (restored from checkpoints and never reset)
host_inst_rate                                 188071                       # Simulator instruction rate (inst/s)
host_mem_usage                                 856288                       # Number of bytes of host memory used
host_op_rate                                   340661                       # Simulator op (including micro ops) rate (op/s)
host_seconds                                   531.71                       # Real time elapsed on the host
host_tick_rate                             1689326152                       # Simulator tick rate (ticks/s)
sim_freq                                 1000000000000                       # Frequency of simulated ticks
sim_insts                                   100000000                       # Number of instructions simulated
sim_ops                                     181133909                       # Number of ops (including micro ops) simulated
sim_seconds                                  0.898238                       # Number of seconds simulated
sim_ticks                                898238116500                       # Number of ticks simulated
system.cpu.Branches                          13383322                       # Number of branches fetched
system.cpu.committedInsts                   100000000                       # Number of instructions committed
system.cpu.committedOps                     181133909                       # Number of ops (including micro ops) committed
system.cpu.dtb.rdAccesses                    14664200                       # TLB accesses on read requests
system.cpu.dtb.rdMisses                         12977                       # TLB misses on read requests
system.cpu.dtb.wrAccesses                    70529091                       # TLB accesses on write requests
system.cpu.dtb.wrMisses                        174858                       # TLB misses on write requests
system.cpu.idle_fraction                            0                       # Percentage of idle cycles
system.cpu.itb.rdAccesses                           0                       # TLB accesses on read requests
system.cpu.itb.rdMisses                             0                       # TLB misses on read requests
system.cpu.itb.wrAccesses                   139196139                       # TLB accesses on write requests
system.cpu.itb.wrMisses                            75                       # TLB misses on write requests
system.cpu.not_idle_fraction                        1                       # Percentage of non-idle cycles
system.cpu.numCycles                       1796476233                       # number of cpu cycles simulated
system.cpu.numWorkItemsCompleted                    0                       # number of work items this cpu completed
system.cpu.numWorkItemsStarted                      0                       # number of work items this cpu started
system.cpu.num_busy_cycles                 1796476233                       # Number of busy cycles
system.cpu.num_cc_register_reads             66390443                       # number of times the CC registers were read
system.cpu.num_cc_register_writes            58331002                       # number of times the CC registers were written
system.cpu.num_conditional_control_insts     12357286                       # number of instructions that are conditional controls
system.cpu.num_fp_alu_accesses               66123612                       # Number of float alu accesses
system.cpu.num_fp_insts                      66123612                       # number of float instructions
system.cpu.num_fp_register_reads             66151484                       # number of times the floating registers were read
system.cpu.num_fp_register_writes               34720                       # number of times the floating registers were written
system.cpu.num_func_calls                      481405                       # number of times a function call or return occured
system.cpu.num_idle_cycles                          0                       # Number of idle cycles
system.cpu.num_int_alu_accesses             180989369                       # Number of integer alu accesses
system.cpu.num_int_insts                    180989369                       # number of integer instructions
system.cpu.num_int_register_reads           393320991                       # number of times the integer registers were read
system.cpu.num_int_register_writes           97341112                       # number of times the integer registers were written
system.cpu.num_load_insts                    14663885                       # Number of load instructions
system.cpu.num_mem_refs                      85192965                       # number of memory refs
system.cpu.num_store_insts                   70529080                       # Number of store instructions
system.cpu.num_vec_alu_accesses                     0                       # Number of vector alu accesses
system.cpu.num_vec_insts                            0                       # number of vector instructions
system.cpu.num_vec_register_reads                   0                       # number of times the vector registers were read
system.cpu.num_vec_register_writes                  0                       # number of times the vector registers were written
system.cpu.op_class::No_OpClass                 17650      0.01%      0.01% # Class of executed instruction
system.cpu.op_class::IntAlu                  95763120     52.86%     52.87% # Class of executed instruction
system.cpu.op_class::IntMult                    94292      0.05%     52.92% # Class of executed instruction
system.cpu.op_class::IntDiv                     79926      0.04%     52.96% # Class of executed instruction
system.cpu.op_class::FloatAdd                    2238      0.00%     52.96% # Class of executed instruction
system.cpu.op_class::FloatCmp                       0      0.00%     52.96% # Class of executed instruction
system.cpu.op_class::FloatCvt                       0      0.00%     52.96% # Class of executed instruction
system.cpu.op_class::FloatMult                      0      0.00%     52.96% # Class of executed instruction
system.cpu.op_class::FloatMultAcc                   0      0.00%     52.96% # Class of executed instruction
system.cpu.op_class::FloatDiv                       0      0.00%     52.96% # Class of executed instruction
system.cpu.op_class::FloatMisc                      0      0.00%     52.96% # Class of executed instruction
system.cpu.op_class::FloatSqrt                      0      0.00%     52.96% # Class of executed instruction
system.cpu.op_class::SimdAdd                        0      0.00%     52.96% # Class of executed instruction
system.cpu.op_class::SimdAddAcc                     0      0.00%     52.96% # Class of executed instruction
system.cpu.op_class::SimdAlu                     4490      0.00%     52.97% # Class of executed instruction
system.cpu.op_class::SimdCmp                       12      0.00%     52.97% # Class of executed instruction
system.cpu.op_class::SimdCvt                     5116      0.00%     52.97% # Class of executed instruction
system.cpu.op_class::SimdMisc                   18029      0.01%     52.98% # Class of executed instruction
system.cpu.op_class::SimdMult                       0      0.00%     52.98% # Class of executed instruction
system.cpu.op_class::SimdMultAcc                    0      0.00%     52.98% # Class of executed instruction
system.cpu.op_class::SimdShift                      0      0.00%     52.98% # Class of executed instruction
system.cpu.op_class::SimdShiftAcc                   0      0.00%     52.98% # Class of executed instruction
system.cpu.op_class::SimdDiv                        0      0.00%     52.98% # Class of executed instruction
system.cpu.op_class::SimdSqrt                       0      0.00%     52.98% # Class of executed instruction
system.cpu.op_class::SimdFloatAdd                   0      0.00%     52.98% # Class of executed instruction
system.cpu.op_class::SimdFloatAlu                   0      0.00%     52.98% # Class of executed instruction
system.cpu.op_class::SimdFloatCmp                   0      0.00%     52.98% # Class of executed instruction
system.cpu.op_class::SimdFloatCvt                  29      0.00%     52.98% # Class of executed instruction
system.cpu.op_class::SimdFloatDiv                   5      0.00%     52.98% # Class of executed instruction
system.cpu.op_class::SimdFloatMisc                  0      0.00%     52.98% # Class of executed instruction
system.cpu.op_class::SimdFloatMult                  5      0.00%     52.98% # Class of executed instruction
system.cpu.op_class::SimdFloatMultAcc               0      0.00%     52.98% # Class of executed instruction
system.cpu.op_class::SimdFloatSqrt                  0      0.00%     52.98% # Class of executed instruction
system.cpu.op_class::SimdReduceAdd                  0      0.00%     52.98% # Class of executed instruction
system.cpu.op_class::SimdReduceAlu                  0      0.00%     52.98% # Class of executed instruction
system.cpu.op_class::SimdReduceCmp                  0      0.00%     52.98% # Class of executed instruction
system.cpu.op_class::SimdFloatReduceAdd             0      0.00%     52.98% # Class of executed instruction
system.cpu.op_class::SimdFloatReduceCmp             0      0.00%     52.98% # Class of executed instruction
system.cpu.op_class::SimdAes                        0      0.00%     52.98% # Class of executed instruction
system.cpu.op_class::SimdAesMix                     0      0.00%     52.98% # Class of executed instruction
system.cpu.op_class::SimdSha1Hash                   0      0.00%     52.98% # Class of executed instruction
system.cpu.op_class::SimdSha1Hash2                  0      0.00%     52.98% # Class of executed instruction
system.cpu.op_class::SimdSha256Hash                 0      0.00%     52.98% # Class of executed instruction
system.cpu.op_class::SimdSha256Hash2                0      0.00%     52.98% # Class of executed instruction
system.cpu.op_class::SimdShaSigma2                  0      0.00%     52.98% # Class of executed instruction
system.cpu.op_class::SimdShaSigma3                  0      0.00%     52.98% # Class of executed instruction
system.cpu.op_class::SimdPredAlu                    0      0.00%     52.98% # Class of executed instruction
system.cpu.op_class::MemRead                 14661216      8.09%     61.07% # Class of executed instruction
system.cpu.op_class::MemWrite                 4442817      2.45%     63.52% # Class of executed instruction
system.cpu.op_class::FloatMemRead                2669      0.00%     63.52% # Class of executed instruction
system.cpu.op_class::FloatMemWrite           66086263     36.48%    100.00% # Class of executed instruction
system.cpu.op_class::IprAccess                      0      0.00%    100.00% # Class of executed instruction
system.cpu.op_class::InstPrefetch                   0      0.00%    100.00% # Class of executed instruction
system.cpu.op_class::total                  181177877                       # Class of executed instruction
system.cpu.workload.numSyscalls                   146                       # Number of system calls
system.membus.snoop_filter.hit_multi_requests            0                       # Number of requests hitting in the snoop filter with multiple (>1) holders of the requested data.
system.membus.snoop_filter.hit_multi_snoops            0                       # Number of snoops hitting in the snoop filter with multiple (>1) holders of the requested data.
system.membus.snoop_filter.hit_single_requests      8230334                       # Number of requests hitting in the snoop filter with a single holder of the requested data.
system.membus.snoop_filter.hit_single_snoops            0                       # Number of snoops hitting in the snoop filter with a single holder of the requested data.
system.membus.snoop_filter.tot_requests      16526949                       # Total number of requests made to the snoop filter.
system.membus.snoop_filter.tot_snoops               0                       # Total number of snoops made to the snoop filter.
system.tol2bus.snoop_filter.hit_multi_requests            1                       # Number of requests hitting in the snoop filter with multiple (>1) holders of the requested data.
system.tol2bus.snoop_filter.hit_multi_snoops            0                       # Number of snoops hitting in the snoop filter with multiple (>1) holders of the requested data.
system.tol2bus.snoop_filter.hit_single_requests      8297314                       # Number of requests hitting in the snoop filter with a single holder of the requested data.
system.tol2bus.snoop_filter.hit_single_snoops         1178                       # Number of snoops hitting in the snoop filter with a single holder of the requested data.
system.tol2bus.snoop_filter.tot_requests     16598077                       # Total number of requests made to the snoop filter.
system.tol2bus.snoop_filter.tot_snoops           1178                       # Total number of snoops made to the snoop filter.
system.membus.trans_dist::ReadResp               6936                       # Transaction distribution
system.membus.trans_dist::WritebackDirty      8229947                       # Transaction distribution
system.membus.trans_dist::CleanEvict              387                       # Transaction distribution
system.membus.trans_dist::ReadExReq           8289679                       # Transaction distribution
system.membus.trans_dist::ReadExResp          8289679                       # Transaction distribution
system.membus.trans_dist::ReadSharedReq          6936                       # Transaction distribution
system.membus.pkt_count_system.l2.mem_side::system.mem_ctrls.port     24823564                       # Packet count per connected master and slave (bytes)
system.membus.pkt_count_system.l2.mem_side::total     24823564                       # Packet count per connected master and slave (bytes)
system.membus.pkt_count::total               24823564                       # Packet count per connected master and slave (bytes)
system.membus.pkt_size_system.l2.mem_side::system.mem_ctrls.port   1057699968                       # Cumulative packet size per connected master and slave (bytes)
system.membus.pkt_size_system.l2.mem_side::total   1057699968                       # Cumulative packet size per connected master and slave (bytes)
system.membus.pkt_size::total              1057699968                       # Cumulative packet size per connected master and slave (bytes)
system.membus.snoops                                0                       # Total snoops (count)
system.membus.snoopTraffic                          0                       # Total snoop traffic (bytes)
system.membus.snoop_fanout::samples           8296615                       # Request fanout histogram
system.membus.snoop_fanout::mean                    0                       # Request fanout histogram
system.membus.snoop_fanout::stdev                   0                       # Request fanout histogram
system.membus.snoop_fanout::underflows              0      0.00%      0.00% # Request fanout histogram
system.membus.snoop_fanout::0                 8296615    100.00%    100.00% # Request fanout histogram
system.membus.snoop_fanout::1                       0      0.00%    100.00% # Request fanout histogram
system.membus.snoop_fanout::overflows               0      0.00%    100.00% # Request fanout histogram
system.membus.snoop_fanout::min_value               0                       # Request fanout histogram
system.membus.snoop_fanout::max_value               0                       # Request fanout histogram
system.membus.snoop_fanout::total             8296615                       # Request fanout histogram
system.membus.reqLayer2.occupancy         49446752500                       # Layer occupancy (ticks)
system.membus.reqLayer2.utilization               5.5                       # Layer utilization (%)
system.membus.respLayer1.occupancy        43609233250                       # Layer occupancy (ticks)
system.membus.respLayer1.utilization              4.9                       # Layer utilization (%)
system.membus.power_state.pwrStateResidencyTicks::UNDEFINED 898238116500                       # Cumulative time (in ticks) in various power states
system.tol2bus.trans_dist::ReadResp              9965                       # Transaction distribution
system.tol2bus.trans_dist::WritebackDirty     16524448                       # Transaction distribution
system.tol2bus.trans_dist::WritebackClean          782                       # Transaction distribution
system.tol2bus.trans_dist::CleanEvict            3538                       # Transaction distribution
system.tol2bus.trans_dist::ReadExReq          8290798                       # Transaction distribution
system.tol2bus.trans_dist::ReadExResp         8290798                       # Transaction distribution
system.tol2bus.trans_dist::ReadCleanReq          2183                       # Transaction distribution
system.tol2bus.trans_dist::ReadSharedReq         7782                       # Transaction distribution
system.tol2bus.pkt_count_system.cpu.icache.mem_side::system.l2.cpu_side         5148                       # Packet count per connected master and slave (bytes)
system.tol2bus.pkt_count_system.cpu.dcache.mem_side::system.l2.cpu_side     24893692                       # Packet count per connected master and slave (bytes)
system.tol2bus.pkt_count::total              24898840                       # Packet count per connected master and slave (bytes)
system.tol2bus.pkt_size_system.cpu.icache.mem_side::system.l2.cpu_side       189760                       # Cumulative packet size per connected master and slave (bytes)
system.tol2bus.pkt_size_system.cpu.dcache.mem_side::system.l2.cpu_side   1061957184                       # Cumulative packet size per connected master and slave (bytes)
system.tol2bus.pkt_size::total             1062146944                       # Cumulative packet size per connected master and slave (bytes)
system.tol2bus.snoops                         8231454                       # Total snoops (count)
system.tol2bus.snoopTraffic                 526716608                       # Total snoop traffic (bytes)
system.tol2bus.snoop_fanout::samples         16532217                       # Request fanout histogram
system.tol2bus.snoop_fanout::mean            0.000071                       # Request fanout histogram
system.tol2bus.snoop_fanout::stdev           0.008445                       # Request fanout histogram
system.tol2bus.snoop_fanout::underflows             0      0.00%      0.00% # Request fanout histogram
system.tol2bus.snoop_fanout::0               16531038     99.99%     99.99% # Request fanout histogram
system.tol2bus.snoop_fanout::1                   1179      0.01%    100.00% # Request fanout histogram
system.tol2bus.snoop_fanout::2                      0      0.00%    100.00% # Request fanout histogram
system.tol2bus.snoop_fanout::3                      0      0.00%    100.00% # Request fanout histogram
system.tol2bus.snoop_fanout::4                      0      0.00%    100.00% # Request fanout histogram
system.tol2bus.snoop_fanout::overflows              0      0.00%    100.00% # Request fanout histogram
system.tol2bus.snoop_fanout::min_value              0                       # Request fanout histogram
system.tol2bus.snoop_fanout::max_value              1                       # Request fanout histogram
system.tol2bus.snoop_fanout::total           16532217                       # Request fanout histogram
system.tol2bus.reqLayer0.occupancy        16594321500                       # Layer occupancy (ticks)
system.tol2bus.reqLayer0.utilization              1.8                       # Layer utilization (%)
system.tol2bus.respLayer1.occupancy       12447870000                       # Layer occupancy (ticks)
system.tol2bus.respLayer1.utilization             1.4                       # Layer utilization (%)
system.tol2bus.respLayer0.occupancy           3274500                       # Layer occupancy (ticks)
system.tol2bus.respLayer0.utilization             0.0                       # Layer utilization (%)
system.tol2bus.power_state.pwrStateResidencyTicks::UNDEFINED 898238116500                       # Cumulative time (in ticks) in various power states
system.voltage_domain.voltage                       1                       # Voltage in Volts
system.clk_domain.clock                          1000                       # Clock period in ticks
system.l2.demand_hits::.cpu.inst                  619                       # number of demand (read+write) hits
system.l2.demand_hits::.cpu.data                 3529                       # number of demand (read+write) hits
system.l2.demand_hits::total                     4148                       # number of demand (read+write) hits
system.l2.overall_hits::.cpu.inst                 619                       # number of overall hits
system.l2.overall_hits::.cpu.data                3529                       # number of overall hits
system.l2.overall_hits::total                    4148                       # number of overall hits
system.l2.demand_misses::.cpu.inst               1564                       # number of demand (read+write) misses
system.l2.demand_misses::.cpu.data            8295051                       # number of demand (read+write) misses
system.l2.demand_misses::total                8296615                       # number of demand (read+write) misses
system.l2.overall_misses::.cpu.inst              1564                       # number of overall misses
system.l2.overall_misses::.cpu.data           8295051                       # number of overall misses
system.l2.overall_misses::total               8296615                       # number of overall misses
system.l2.demand_miss_latency::.cpu.inst    128362000                       # number of demand (read+write) miss cycles
system.l2.demand_miss_latency::.cpu.data 661269845500                       # number of demand (read+write) miss cycles
system.l2.demand_miss_latency::total     661398207500                       # number of demand (read+write) miss cycles
system.l2.overall_miss_latency::.cpu.inst    128362000                       # number of overall miss cycles
system.l2.overall_miss_latency::.cpu.data 661269845500                       # number of overall miss cycles
system.l2.overall_miss_latency::total    661398207500                       # number of overall miss cycles
system.l2.demand_accesses::.cpu.inst             2183                       # number of demand (read+write) accesses
system.l2.demand_accesses::.cpu.data          8298580                       # number of demand (read+write) accesses
system.l2.demand_accesses::total              8300763                       # number of demand (read+write) accesses
system.l2.overall_accesses::.cpu.inst            2183                       # number of overall (read+write) accesses
system.l2.overall_accesses::.cpu.data         8298580                       # number of overall (read+write) accesses
system.l2.overall_accesses::total             8300763                       # number of overall (read+write) accesses
system.l2.demand_miss_rate::.cpu.inst        0.716445                       # miss rate for demand accesses
system.l2.demand_miss_rate::.cpu.data        0.999575                       # miss rate for demand accesses
system.l2.demand_miss_rate::total            0.999500                       # miss rate for demand accesses
system.l2.overall_miss_rate::.cpu.inst       0.716445                       # miss rate for overall accesses
system.l2.overall_miss_rate::.cpu.data       0.999575                       # miss rate for overall accesses
system.l2.overall_miss_rate::total           0.999500                       # miss rate for overall accesses
system.l2.demand_avg_miss_latency::.cpu.inst 82072.890026                       # average overall miss latency
system.l2.demand_avg_miss_latency::.cpu.data 79718.599138                       # average overall miss latency
system.l2.demand_avg_miss_latency::total 79719.042947                       # average overall miss latency
system.l2.overall_avg_miss_latency::.cpu.inst 82072.890026                       # average overall miss latency
system.l2.overall_avg_miss_latency::.cpu.data 79718.599138                       # average overall miss latency
system.l2.overall_avg_miss_latency::total 79719.042947                       # average overall miss latency
system.l2.blocked_cycles::no_mshrs                  0                       # number of cycles access was blocked
system.l2.blocked_cycles::no_targets                0                       # number of cycles access was blocked
system.l2.blocked::no_mshrs                         0                       # number of cycles access was blocked
system.l2.blocked::no_targets                       0                       # number of cycles access was blocked
system.l2.avg_blocked_cycles::no_mshrs            nan                       # average number of cycles each access was blocked
system.l2.avg_blocked_cycles::no_targets          nan                       # average number of cycles each access was blocked
system.l2.writebacks::.writebacks             8229947                       # number of writebacks
system.l2.writebacks::total                   8229947                       # number of writebacks
system.l2.demand_mshr_misses::.cpu.inst          1564                       # number of demand (read+write) MSHR misses
system.l2.demand_mshr_misses::.cpu.data       8295051                       # number of demand (read+write) MSHR misses
system.l2.demand_mshr_misses::total           8296615                       # number of demand (read+write) MSHR misses
system.l2.overall_mshr_misses::.cpu.inst         1564                       # number of overall MSHR misses
system.l2.overall_mshr_misses::.cpu.data      8295051                       # number of overall MSHR misses
system.l2.overall_mshr_misses::total          8296615                       # number of overall MSHR misses
system.l2.demand_mshr_miss_latency::.cpu.inst    112722000                       # number of demand (read+write) MSHR miss cycles
system.l2.demand_mshr_miss_latency::.cpu.data 578319335500                       # number of demand (read+write) MSHR miss cycles
system.l2.demand_mshr_miss_latency::total 578432057500                       # number of demand (read+write) MSHR miss cycles
system.l2.overall_mshr_miss_latency::.cpu.inst    112722000                       # number of overall MSHR miss cycles
system.l2.overall_mshr_miss_latency::.cpu.data 578319335500                       # number of overall MSHR miss cycles
system.l2.overall_mshr_miss_latency::total 578432057500                       # number of overall MSHR miss cycles
system.l2.demand_mshr_miss_rate::.cpu.inst     0.716445                       # mshr miss rate for demand accesses
system.l2.demand_mshr_miss_rate::.cpu.data     0.999575                       # mshr miss rate for demand accesses
system.l2.demand_mshr_miss_rate::total       0.999500                       # mshr miss rate for demand accesses
system.l2.overall_mshr_miss_rate::.cpu.inst     0.716445                       # mshr miss rate for overall accesses
system.l2.overall_mshr_miss_rate::.cpu.data     0.999575                       # mshr miss rate for overall accesses
system.l2.overall_mshr_miss_rate::total      0.999500                       # mshr miss rate for overall accesses
system.l2.demand_avg_mshr_miss_latency::.cpu.inst 72072.890026                       # average overall mshr miss latency
system.l2.demand_avg_mshr_miss_latency::.cpu.data 69718.599138                       # average overall mshr miss latency
system.l2.demand_avg_mshr_miss_latency::total 69719.042947                       # average overall mshr miss latency
system.l2.overall_avg_mshr_miss_latency::.cpu.inst 72072.890026                       # average overall mshr miss latency
system.l2.overall_avg_mshr_miss_latency::.cpu.data 69718.599138                       # average overall mshr miss latency
system.l2.overall_avg_mshr_miss_latency::total 69719.042947                       # average overall mshr miss latency
system.l2.replacements                        8231454                       # number of replacements
system.l2.WritebackDirty_hits::.writebacks      8294501                       # number of WritebackDirty hits
system.l2.WritebackDirty_hits::total          8294501                       # number of WritebackDirty hits
system.l2.WritebackDirty_accesses::.writebacks      8294501                       # number of WritebackDirty accesses(hits+misses)
system.l2.WritebackDirty_accesses::total      8294501                       # number of WritebackDirty accesses(hits+misses)
system.l2.WritebackClean_hits::.writebacks          782                       # number of WritebackClean hits
system.l2.WritebackClean_hits::total              782                       # number of WritebackClean hits
system.l2.WritebackClean_accesses::.writebacks          782                       # number of WritebackClean accesses(hits+misses)
system.l2.WritebackClean_accesses::total          782                       # number of WritebackClean accesses(hits+misses)
system.l2.CleanEvict_mshr_misses::.writebacks           58                       # number of CleanEvict MSHR misses
system.l2.CleanEvict_mshr_misses::total            58                       # number of CleanEvict MSHR misses
system.l2.CleanEvict_mshr_miss_rate::.writebacks          inf                       # mshr miss rate for CleanEvict accesses
system.l2.CleanEvict_mshr_miss_rate::total          inf                       # mshr miss rate for CleanEvict accesses
system.l2.ReadExReq_hits::.cpu.data              1119                       # number of ReadExReq hits
system.l2.ReadExReq_hits::total                  1119                       # number of ReadExReq hits
system.l2.ReadExReq_misses::.cpu.data         8289679                       # number of ReadExReq misses
system.l2.ReadExReq_misses::total             8289679                       # number of ReadExReq misses
system.l2.ReadExReq_miss_latency::.cpu.data 660788253000                       # number of ReadExReq miss cycles
system.l2.ReadExReq_miss_latency::total  660788253000                       # number of ReadExReq miss cycles
system.l2.ReadExReq_accesses::.cpu.data       8290798                       # number of ReadExReq accesses(hits+misses)
system.l2.ReadExReq_accesses::total           8290798                       # number of ReadExReq accesses(hits+misses)
system.l2.ReadExReq_miss_rate::.cpu.data     0.999865                       # miss rate for ReadExReq accesses
system.l2.ReadExReq_miss_rate::total         0.999865                       # miss rate for ReadExReq accesses
system.l2.ReadExReq_avg_miss_latency::.cpu.data 79712.164126                       # average ReadExReq miss latency
system.l2.ReadExReq_avg_miss_latency::total 79712.164126                       # average ReadExReq miss latency
system.l2.ReadExReq_mshr_misses::.cpu.data      8289679                       # number of ReadExReq MSHR misses
system.l2.ReadExReq_mshr_misses::total        8289679                       # number of ReadExReq MSHR misses
system.l2.ReadExReq_mshr_miss_latency::.cpu.data 577891463000                       # number of ReadExReq MSHR miss cycles
system.l2.ReadExReq_mshr_miss_latency::total 577891463000                       # number of ReadExReq MSHR miss cycles
system.l2.ReadExReq_mshr_miss_rate::.cpu.data     0.999865                       # mshr miss rate for ReadExReq accesses
system.l2.ReadExReq_mshr_miss_rate::total     0.999865                       # mshr miss rate for ReadExReq accesses
system.l2.ReadExReq_avg_mshr_miss_latency::.cpu.data 69712.164126                       # average ReadExReq mshr miss latency
system.l2.ReadExReq_avg_mshr_miss_latency::total 69712.164126                       # average ReadExReq mshr miss latency
system.l2.ReadCleanReq_hits::.cpu.inst            619                       # number of ReadCleanReq hits
system.l2.ReadCleanReq_hits::total                619                       # number of ReadCleanReq hits
system.l2.ReadCleanReq_misses::.cpu.inst         1564                       # number of ReadCleanReq misses
system.l2.ReadCleanReq_misses::total             1564                       # number of ReadCleanReq misses
system.l2.ReadCleanReq_miss_latency::.cpu.inst    128362000                       # number of ReadCleanReq miss cycles
system.l2.ReadCleanReq_miss_latency::total    128362000                       # number of ReadCleanReq miss cycles
system.l2.ReadCleanReq_accesses::.cpu.inst         2183                       # number of ReadCleanReq accesses(hits+misses)
system.l2.ReadCleanReq_accesses::total           2183                       # number of ReadCleanReq accesses(hits+misses)
system.l2.ReadCleanReq_miss_rate::.cpu.inst     0.716445                       # miss rate for ReadCleanReq accesses
system.l2.ReadCleanReq_miss_rate::total      0.716445                       # miss rate for ReadCleanReq accesses
system.l2.ReadCleanReq_avg_miss_latency::.cpu.inst 82072.890026                       # average ReadCleanReq miss latency
system.l2.ReadCleanReq_avg_miss_latency::total 82072.890026                       # average ReadCleanReq miss latency
system.l2.ReadCleanReq_mshr_misses::.cpu.inst         1564                       # number of ReadCleanReq MSHR misses
system.l2.ReadCleanReq_mshr_misses::total         1564                       # number of ReadCleanReq MSHR misses
system.l2.ReadCleanReq_mshr_miss_latency::.cpu.inst    112722000                       # number of ReadCleanReq MSHR miss cycles
system.l2.ReadCleanReq_mshr_miss_latency::total    112722000                       # number of ReadCleanReq MSHR miss cycles
system.l2.ReadCleanReq_mshr_miss_rate::.cpu.inst     0.716445                       # mshr miss rate for ReadCleanReq accesses
system.l2.ReadCleanReq_mshr_miss_rate::total     0.716445                       # mshr miss rate for ReadCleanReq accesses
system.l2.ReadCleanReq_avg_mshr_miss_latency::.cpu.inst 72072.890026                       # average ReadCleanReq mshr miss latency
system.l2.ReadCleanReq_avg_mshr_miss_latency::total 72072.890026                       # average ReadCleanReq mshr miss latency
system.l2.ReadSharedReq_hits::.cpu.data          2410                       # number of ReadSharedReq hits
system.l2.ReadSharedReq_hits::total              2410                       # number of ReadSharedReq hits
system.l2.ReadSharedReq_misses::.cpu.data         5372                       # number of ReadSharedReq misses
system.l2.ReadSharedReq_misses::total            5372                       # number of ReadSharedReq misses
system.l2.ReadSharedReq_miss_latency::.cpu.data    481592500                       # number of ReadSharedReq miss cycles
system.l2.ReadSharedReq_miss_latency::total    481592500                       # number of ReadSharedReq miss cycles
system.l2.ReadSharedReq_accesses::.cpu.data         7782                       # number of ReadSharedReq accesses(hits+misses)
system.l2.ReadSharedReq_accesses::total          7782                       # number of ReadSharedReq accesses(hits+misses)
system.l2.ReadSharedReq_miss_rate::.cpu.data     0.690311                       # miss rate for ReadSharedReq accesses
system.l2.ReadSharedReq_miss_rate::total     0.690311                       # miss rate for ReadSharedReq accesses
system.l2.ReadSharedReq_avg_miss_latency::.cpu.data 89648.641102                       # average ReadSharedReq miss latency
system.l2.ReadSharedReq_avg_miss_latency::total 89648.641102                       # average ReadSharedReq miss latency
system.l2.ReadSharedReq_mshr_misses::.cpu.data         5372                       # number of ReadSharedReq MSHR misses
system.l2.ReadSharedReq_mshr_misses::total         5372                       # number of ReadSharedReq MSHR misses
system.l2.ReadSharedReq_mshr_miss_latency::.cpu.data    427872500                       # number of ReadSharedReq MSHR miss cycles
system.l2.ReadSharedReq_mshr_miss_latency::total    427872500                       # number of ReadSharedReq MSHR miss cycles
system.l2.ReadSharedReq_mshr_miss_rate::.cpu.data     0.690311                       # mshr miss rate for ReadSharedReq accesses
system.l2.ReadSharedReq_mshr_miss_rate::total     0.690311                       # mshr miss rate for ReadSharedReq accesses
system.l2.ReadSharedReq_avg_mshr_miss_latency::.cpu.data 79648.641102                       # average ReadSharedReq mshr miss latency
system.l2.ReadSharedReq_avg_mshr_miss_latency::total 79648.641102                       # average ReadSharedReq mshr miss latency
system.l2.power_state.pwrStateResidencyTicks::UNDEFINED 898238116500                       # Cumulative time (in ticks) in various power states
system.l2.tags.tagsinuse                 64786.975824                       # Cycle average of tags in use
system.l2.tags.total_refs                    16598018                       # Total number of references to valid blocks.
system.l2.tags.sampled_refs                   8296990                       # Sample count of references to valid blocks.
system.l2.tags.avg_refs                      2.000487                       # Average number of references to valid blocks.
system.l2.tags.warmup_cycle                     77000                       # Cycle when the warmup percentage was hit.
system.l2.tags.occ_blocks::.writebacks      12.754075                       # Average occupied blocks per requestor
system.l2.tags.occ_blocks::.cpu.inst        55.797491                       # Average occupied blocks per requestor
system.l2.tags.occ_blocks::.cpu.data     64718.424259                       # Average occupied blocks per requestor
system.l2.tags.occ_percent::.writebacks      0.000195                       # Average percentage of cache occupancy
system.l2.tags.occ_percent::.cpu.inst        0.000851                       # Average percentage of cache occupancy
system.l2.tags.occ_percent::.cpu.data        0.987525                       # Average percentage of cache occupancy
system.l2.tags.occ_percent::total            0.988571                       # Average percentage of cache occupancy
system.l2.tags.occ_task_id_blocks::1024         65536                       # Occupied blocks per task id
system.l2.tags.age_task_id_blocks_1024::0            4                       # Occupied blocks per task id
system.l2.tags.age_task_id_blocks_1024::1            3                       # Occupied blocks per task id
system.l2.tags.age_task_id_blocks_1024::2           39                       # Occupied blocks per task id
system.l2.tags.age_task_id_blocks_1024::3          376                       # Occupied blocks per task id
system.l2.tags.age_task_id_blocks_1024::4        65114                       # Occupied blocks per task id
system.l2.tags.occ_task_id_percent::1024            1                       # Percentage of cache occupancy per task id
system.l2.tags.tag_accesses                  24895066                       # Number of tag accesses
system.l2.tags.data_accesses                 24895066                       # Number of data accesses
system.l2.tags.power_state.pwrStateResidencyTicks::UNDEFINED 898238116500                       # Cumulative time (in ticks) in various power states
system.cpu_voltage_domain.voltage                   1                       # Voltage in Volts
system.mem_ctrls.bytes_read::.cpu.inst         100096                       # Number of bytes read from this memory
system.mem_ctrls.bytes_read::.cpu.data      530883264                       # Number of bytes read from this memory
system.mem_ctrls.bytes_read::total          530983360                       # Number of bytes read from this memory
system.mem_ctrls.bytes_inst_read::.cpu.inst       100096                       # Number of instructions bytes read from this memory
system.mem_ctrls.bytes_inst_read::total        100096                       # Number of instructions bytes read from this memory
system.mem_ctrls.bytes_written::.writebacks    526716608                       # Number of bytes written to this memory
system.mem_ctrls.bytes_written::total       526716608                       # Number of bytes written to this memory
system.mem_ctrls.num_reads::.cpu.inst            1564                       # Number of read requests responded to by this memory
system.mem_ctrls.num_reads::.cpu.data         8295051                       # Number of read requests responded to by this memory
system.mem_ctrls.num_reads::total             8296615                       # Number of read requests responded to by this memory
system.mem_ctrls.num_writes::.writebacks      8229947                       # Number of write requests responded to by this memory
system.mem_ctrls.num_writes::total            8229947                       # Number of write requests responded to by this memory
system.mem_ctrls.bw_read::.cpu.inst            111436                       # Total read bandwidth from this memory (bytes/s)
system.mem_ctrls.bw_read::.cpu.data         591027317                       # Total read bandwidth from this memory (bytes/s)
system.mem_ctrls.bw_read::total             591138753                       # Total read bandwidth from this memory (bytes/s)
system.mem_ctrls.bw_inst_read::.cpu.inst       111436                       # Instruction read bandwidth from this memory (bytes/s)
system.mem_ctrls.bw_inst_read::total           111436                       # Instruction read bandwidth from this memory (bytes/s)
system.mem_ctrls.bw_write::.writebacks      586388618                       # Write bandwidth from this memory (bytes/s)
system.mem_ctrls.bw_write::total            586388618                       # Write bandwidth from this memory (bytes/s)
system.mem_ctrls.bw_total::.writebacks      586388618                       # Total bandwidth to/from this memory (bytes/s)
system.mem_ctrls.bw_total::.cpu.inst           111436                       # Total bandwidth to/from this memory (bytes/s)
system.mem_ctrls.bw_total::.cpu.data        591027317                       # Total bandwidth to/from this memory (bytes/s)
system.mem_ctrls.bw_total::total           1177527371                       # Total bandwidth to/from this memory (bytes/s)
system.mem_ctrls.avgPriority_.writebacks::samples   8229947.00                       # Average QoS priority value for accepted requests
system.mem_ctrls.avgPriority_.cpu.inst::samples      1564.00                       # Average QoS priority value for accepted requests
system.mem_ctrls.avgPriority_.cpu.data::samples   8295048.00                       # Average QoS priority value for accepted requests
system.mem_ctrls.priorityMinLatency      0.000000018750                       # per QoS priority minimum request to response latency (s)
system.mem_ctrls.priorityMaxLatency      0.006292952500                       # per QoS priority maximum request to response latency (s)
system.mem_ctrls.numReadWriteTurnArounds       514081                       # Number of turnarounds from READ to WRITE
system.mem_ctrls.numWriteReadTurnArounds       514081                       # Number of turnarounds from WRITE to READ
system.mem_ctrls.numStayReadState            24527755                       # Number of times bus staying in READ state
system.mem_ctrls.numStayWriteState            7729092                       # Number of times bus staying in WRITE state
system.mem_ctrls.readReqs                     8296615                       # Number of read requests accepted
system.mem_ctrls.writeReqs                    8229947                       # Number of write requests accepted
system.mem_ctrls.readBursts                   8296615                       # Number of DRAM read bursts, including those serviced by the write queue
system.mem_ctrls.writeBursts                  8229947                       # Number of DRAM write bursts, including those merged in the write queue
system.mem_ctrls.servicedByWrQ                      3                       # Number of DRAM read bursts serviced by the write queue
system.mem_ctrls.mergedWrBursts                     0                       # Number of DRAM write bursts merged with an existing one
system.mem_ctrls.neitherReadNorWriteReqs            0                       # Number of requests that are neither read nor write
system.mem_ctrls.perBankRdBursts::0            518476                       # Per bank write bursts
system.mem_ctrls.perBankRdBursts::1            518408                       # Per bank write bursts
system.mem_ctrls.perBankRdBursts::2            518439                       # Per bank write bursts
system.mem_ctrls.perBankRdBursts::3            518645                       # Per bank write bursts
system.mem_ctrls.perBankRdBursts::4            518595                       # Per bank write bursts
system.mem_ctrls.perBankRdBursts::5            518550                       # Per bank write bursts
system.mem_ctrls.perBankRdBursts::6            518520                       # Per bank write bursts
system.mem_ctrls.perBankRdBursts::7            518296                       # Per bank write bursts
system.mem_ctrls.perBankRdBursts::8            518175                       # Per bank write bursts
system.mem_ctrls.perBankRdBursts::9            518403                       # Per bank write bursts
system.mem_ctrls.perBankRdBursts::10           518582                       # Per bank write bursts
system.mem_ctrls.perBankRdBursts::11           518780                       # Per bank write bursts
system.mem_ctrls.perBankRdBursts::12           518559                       # Per bank write bursts
system.mem_ctrls.perBankRdBursts::13           518728                       # Per bank write bursts
system.mem_ctrls.perBankRdBursts::14           518702                       # Per bank write bursts
system.mem_ctrls.perBankRdBursts::15           518754                       # Per bank write bursts
system.mem_ctrls.perBankWrBursts::0            514265                       # Per bank write bursts
system.mem_ctrls.perBankWrBursts::1            514249                       # Per bank write bursts
system.mem_ctrls.perBankWrBursts::2            514307                       # Per bank write bursts
system.mem_ctrls.perBankWrBursts::3            514440                       # Per bank write bursts
system.mem_ctrls.perBankWrBursts::4            514390                       # Per bank write bursts
system.mem_ctrls.perBankWrBursts::5            514336                       # Per bank write bursts
system.mem_ctrls.perBankWrBursts::6            514378                       # Per bank write bursts
system.mem_ctrls.perBankWrBursts::7            514114                       # Per bank write bursts
system.mem_ctrls.perBankWrBursts::8            514045                       # Per bank write bursts
system.mem_ctrls.perBankWrBursts::9            514228                       # Per bank write bursts
system.mem_ctrls.perBankWrBursts::10           514412                       # Per bank write bursts
system.mem_ctrls.perBankWrBursts::11           514642                       # Per bank write bursts
system.mem_ctrls.perBankWrBursts::12           514425                       # Per bank write bursts
system.mem_ctrls.perBankWrBursts::13           514552                       # Per bank write bursts
system.mem_ctrls.perBankWrBursts::14           514566                       # Per bank write bursts
system.mem_ctrls.perBankWrBursts::15           514576                       # Per bank write bursts
system.mem_ctrls.avgRdQLen                       1.00                       # Average read queue length when enqueuing
system.mem_ctrls.avgWrQLen                      25.61                       # Average write queue length when enqueuing
system.mem_ctrls.totQLat                  84731512000                       # Total ticks spent queuing
system.mem_ctrls.totBusLat                41483060000                       # Total ticks spent in databus transfers
system.mem_ctrls.totMemAccLat            240292987000                       # Total ticks spent from burst creation until serviced by the DRAM
system.mem_ctrls.avgQLat                     10212.78                       # Average queueing delay per DRAM burst
system.mem_ctrls.avgBusLat                    5000.00                       # Average bus latency per DRAM burst
system.mem_ctrls.avgMemAccLat                28962.78                       # Average memory access latency per DRAM burst
system.mem_ctrls.numRdRetry                         0                       # Number of times read queue was full causing retry
system.mem_ctrls.numWrRetry                         0                       # Number of times write queue was full causing retry
system.mem_ctrls.readRowHits                  7653731                       # Number of row buffer hits during reads
system.mem_ctrls.writeRowHits                 7640808                       # Number of row buffer hits during writes
system.mem_ctrls.readRowHitRate                 92.25                       # Row buffer hit rate for reads
system.mem_ctrls.writeRowHitRate                92.84                       # Row buffer hit rate for writes
system.mem_ctrls.readPktSize::0                     0                       # Read request sizes (log2)
system.mem_ctrls.readPktSize::1                     0                       # Read request sizes (log2)
system.mem_ctrls.readPktSize::2                     0                       # Read request sizes (log2)
system.mem_ctrls.readPktSize::3                     0                       # Read request sizes (log2)
system.mem_ctrls.readPktSize::4                     0                       # Read request sizes (log2)
system.mem_ctrls.readPktSize::5                     0                       # Read request sizes (log2)
system.mem_ctrls.readPktSize::6               8296615                       # Read request sizes (log2)
system.mem_ctrls.writePktSize::0                    0                       # Write request sizes (log2)
system.mem_ctrls.writePktSize::1                    0                       # Write request sizes (log2)
system.mem_ctrls.writePktSize::2                    0                       # Write request sizes (log2)
system.mem_ctrls.writePktSize::3                    0                       # Write request sizes (log2)
system.mem_ctrls.writePktSize::4                    0                       # Write request sizes (log2)
system.mem_ctrls.writePktSize::5                    0                       # Write request sizes (log2)
system.mem_ctrls.writePktSize::6              8229947                       # Write request sizes (log2)
system.mem_ctrls.rdQLenPdf::0                 8296611                       # What read queue length does an incoming req see
system.mem_ctrls.rdQLenPdf::1                       1                       # What read queue length does an incoming req see
system.mem_ctrls.rdQLenPdf::2                       0                       # What read queue length does an incoming req see
system.mem_ctrls.rdQLenPdf::3                       0                       # What read queue length does an incoming req see
system.mem_ctrls.rdQLenPdf::4                       0                       # What read queue length does an incoming req see
system.mem_ctrls.rdQLenPdf::5                       0                       # What read queue length does an incoming req see
system.mem_ctrls.rdQLenPdf::6                       0                       # What read queue length does an incoming req see
system.mem_ctrls.rdQLenPdf::7                       0                       # What read queue length does an incoming req see
system.mem_ctrls.rdQLenPdf::8                       0                       # What read queue length does an incoming req see
system.mem_ctrls.rdQLenPdf::9                       0                       # What read queue length does an incoming req see
system.mem_ctrls.rdQLenPdf::10                      0                       # What read queue length does an incoming req see
system.mem_ctrls.rdQLenPdf::11                      0                       # What read queue length does an incoming req see
system.mem_ctrls.rdQLenPdf::12                      0                       # What read queue length does an incoming req see
system.mem_ctrls.rdQLenPdf::13                      0                       # What read queue length does an incoming req see
system.mem_ctrls.rdQLenPdf::14                      0                       # What read queue length does an incoming req see
system.mem_ctrls.rdQLenPdf::15                      0                       # What read queue length does an incoming req see
system.mem_ctrls.rdQLenPdf::16                      0                       # What read queue length does an incoming req see
system.mem_ctrls.rdQLenPdf::17                      0                       # What read queue length does an incoming req see
system.mem_ctrls.rdQLenPdf::18                      0                       # What read queue length does an incoming req see
system.mem_ctrls.rdQLenPdf::19                      0                       # What read queue length does an incoming req see
system.mem_ctrls.rdQLenPdf::20                      0                       # What read queue length does an incoming req see
system.mem_ctrls.rdQLenPdf::21                      0                       # What read queue length does an incoming req see
system.mem_ctrls.rdQLenPdf::22                      0                       # What read queue length does an incoming req see
system.mem_ctrls.rdQLenPdf::23                      0                       # What read queue length does an incoming req see
system.mem_ctrls.rdQLenPdf::24                      0                       # What read queue length does an incoming req see
system.mem_ctrls.rdQLenPdf::25                      0                       # What read queue length does an incoming req see
system.mem_ctrls.rdQLenPdf::26                      0                       # What read queue length does an incoming req see
system.mem_ctrls.rdQLenPdf::27                      0                       # What read queue length does an incoming req see
system.mem_ctrls.rdQLenPdf::28                      0                       # What read queue length does an incoming req see
system.mem_ctrls.rdQLenPdf::29                      0                       # What read queue length does an incoming req see
system.mem_ctrls.rdQLenPdf::30                      0                       # What read queue length does an incoming req see
system.mem_ctrls.rdQLenPdf::31                      0                       # What read queue length does an incoming req see
system.mem_ctrls.wrQLenPdf::0                       1                       # What write queue length does an incoming req see
system.mem_ctrls.wrQLenPdf::1                       1                       # What write queue length does an incoming req see
system.mem_ctrls.wrQLenPdf::2                       1                       # What write queue length does an incoming req see
system.mem_ctrls.wrQLenPdf::3                       1                       # What write queue length does an incoming req see
system.mem_ctrls.wrQLenPdf::4                       1                       # What write queue length does an incoming req see
system.mem_ctrls.wrQLenPdf::5                       1                       # What write queue length does an incoming req see
system.mem_ctrls.wrQLenPdf::6                       1                       # What write queue length does an incoming req see
system.mem_ctrls.wrQLenPdf::7                       1                       # What write queue length does an incoming req see
system.mem_ctrls.wrQLenPdf::8                       1                       # What write queue length does an incoming req see
system.mem_ctrls.wrQLenPdf::9                       1                       # What write queue length does an incoming req see
system.mem_ctrls.wrQLenPdf::10                      1                       # What write queue length does an incoming req see
system.mem_ctrls.wrQLenPdf::11                      1                       # What write queue length does an incoming req see
system.mem_ctrls.wrQLenPdf::12                      1                       # What write queue length does an incoming req see
system.mem_ctrls.wrQLenPdf::13                      1                       # What write queue length does an incoming req see
system.mem_ctrls.wrQLenPdf::14                      1                       # What write queue length does an incoming req see
system.mem_ctrls.wrQLenPdf::15                   2238                       # What write queue length does an incoming req see
system.mem_ctrls.wrQLenPdf::16                   2260                       # What write queue length does an incoming req see
system.mem_ctrls.wrQLenPdf::17                 511385                       # What write queue length does an incoming req see
system.mem_ctrls.wrQLenPdf::18                 514087                       # What write queue length does an incoming req see
system.mem_ctrls.wrQLenPdf::19                 514085                       # What write queue length does an incoming req see
system.mem_ctrls.wrQLenPdf::20                 514082                       # What write queue length does an incoming req see
system.mem_ctrls.wrQLenPdf::21                 514083                       # What write queue length does an incoming req see
system.mem_ctrls.wrQLenPdf::22                 514092                       # What write queue length does an incoming req see
system.mem_ctrls.wrQLenPdf::23                 514094                       # What write queue length does an incoming req see
system.mem_ctrls.wrQLenPdf::24                 514083                       # What write queue length does an incoming req see
system.mem_ctrls.wrQLenPdf::25                 516867                       # What write queue length does an incoming req see
system.mem_ctrls.wrQLenPdf::26                 514088                       # What write queue length does an incoming req see
system.mem_ctrls.wrQLenPdf::27                 514082                       # What write queue length does an incoming req see
system.mem_ctrls.wrQLenPdf::28                 514082                       # What write queue length does an incoming req see
system.mem_ctrls.wrQLenPdf::29                 514081                       # What write queue length does an incoming req see
system.mem_ctrls.wrQLenPdf::30                 514081                       # What write queue length does an incoming req see
system.mem_ctrls.wrQLenPdf::31                 514081                       # What write queue length does an incoming req see
system.mem_ctrls.wrQLenPdf::32                 514081                       # What write queue length does an incoming req see
system.mem_ctrls.wrQLenPdf::33                      0                       # What write queue length does an incoming req see
system.mem_ctrls.wrQLenPdf::34                      0                       # What write queue length does an incoming req see
system.mem_ctrls.wrQLenPdf::35                      0                       # What write queue length does an incoming req see
system.mem_ctrls.wrQLenPdf::36                      0                       # What write queue length does an incoming req see
system.mem_ctrls.wrQLenPdf::37                      0                       # What write queue length does an incoming req see
system.mem_ctrls.wrQLenPdf::38                      0                       # What write queue length does an incoming req see
system.mem_ctrls.wrQLenPdf::39                      0                       # What write queue length does an incoming req see
system.mem_ctrls.wrQLenPdf::40                      0                       # What write queue length does an incoming req see
system.mem_ctrls.wrQLenPdf::41                      0                       # What write queue length does an incoming req see
system.mem_ctrls.wrQLenPdf::42                      0                       # What write queue length does an incoming req see
system.mem_ctrls.wrQLenPdf::43                      0                       # What write queue length does an incoming req see
system.mem_ctrls.wrQLenPdf::44                      0                       # What write queue length does an incoming req see
system.mem_ctrls.wrQLenPdf::45                      0                       # What write queue length does an incoming req see
system.mem_ctrls.wrQLenPdf::46                      0                       # What write queue length does an incoming req see
system.mem_ctrls.wrQLenPdf::47                      0                       # What write queue length does an incoming req see
system.mem_ctrls.wrQLenPdf::48                      0                       # What write queue length does an incoming req see
system.mem_ctrls.wrQLenPdf::49                      0                       # What write queue length does an incoming req see
system.mem_ctrls.wrQLenPdf::50                      0                       # What write queue length does an incoming req see
system.mem_ctrls.wrQLenPdf::51                      0                       # What write queue length does an incoming req see
system.mem_ctrls.wrQLenPdf::52                      0                       # What write queue length does an incoming req see
system.mem_ctrls.wrQLenPdf::53                      0                       # What write queue length does an incoming req see
system.mem_ctrls.wrQLenPdf::54                      0                       # What write queue length does an incoming req see
system.mem_ctrls.wrQLenPdf::55                      0                       # What write queue length does an incoming req see
system.mem_ctrls.wrQLenPdf::56                      0                       # What write queue length does an incoming req see
system.mem_ctrls.wrQLenPdf::57                      0                       # What write queue length does an incoming req see
system.mem_ctrls.wrQLenPdf::58                      0                       # What write queue length does an incoming req see
system.mem_ctrls.wrQLenPdf::59                      0                       # What write queue length does an incoming req see
system.mem_ctrls.wrQLenPdf::60                      0                       # What write queue length does an incoming req see
system.mem_ctrls.wrQLenPdf::61                      0                       # What write queue length does an incoming req see
system.mem_ctrls.wrQLenPdf::62                      0                       # What write queue length does an incoming req see
system.mem_ctrls.wrQLenPdf::63                      0                       # What write queue length does an incoming req see
system.mem_ctrls.bytesPerActivate::samples      1231998                       # Bytes accessed per row activation
system.mem_ctrls.bytesPerActivate::mean    858.522796                       # Bytes accessed per row activation
system.mem_ctrls.bytesPerActivate::gmean   726.373607                       # Bytes accessed per row activation
system.mem_ctrls.bytesPerActivate::stdev   307.392014                       # Bytes accessed per row activation
system.mem_ctrls.bytesPerActivate::0-127        77678      6.31%      6.31% # Bytes accessed per row activation
system.mem_ctrls.bytesPerActivate::128-255        36438      2.96%      9.26% # Bytes accessed per row activation
system.mem_ctrls.bytesPerActivate::256-383        39063      3.17%     12.43% # Bytes accessed per row activation
system.mem_ctrls.bytesPerActivate::384-511        41986      3.41%     15.84% # Bytes accessed per row activation
system.mem_ctrls.bytesPerActivate::512-639        32562      2.64%     18.48% # Bytes accessed per row activation
system.mem_ctrls.bytesPerActivate::640-767        43752      3.55%     22.04% # Bytes accessed per row activation
system.mem_ctrls.bytesPerActivate::768-895        31748      2.58%     24.61% # Bytes accessed per row activation
system.mem_ctrls.bytesPerActivate::896-1023        78870      6.40%     31.01% # Bytes accessed per row activation
system.mem_ctrls.bytesPerActivate::1024-1151       849901     68.99%    100.00% # Bytes accessed per row activation
system.mem_ctrls.bytesPerActivate::total      1231998                       # Bytes accessed per row activation
system.mem_ctrls.rdPerTurnAround::samples       514081                       # Reads before turning the bus around for writes
system.mem_ctrls.rdPerTurnAround::mean      16.138714                       # Reads before turning the bus around for writes
system.mem_ctrls.rdPerTurnAround::gmean     16.011442                       # Reads before turning the bus around for writes
system.mem_ctrls.rdPerTurnAround::stdev     60.851240                       # Reads before turning the bus around for writes
system.mem_ctrls.rdPerTurnAround::0-2047       514079    100.00%    100.00% # Reads before turning the bus around for writes
system.mem_ctrls.rdPerTurnAround::26624-28671            1      0.00%    100.00% # Reads before turning the bus around for writes
system.mem_ctrls.rdPerTurnAround::32768-34815            1      0.00%    100.00% # Reads before turning the bus around for writes
system.mem_ctrls.rdPerTurnAround::total        514081                       # Reads before turning the bus around for writes
system.mem_ctrls.wrPerTurnAround::samples       514081                       # Writes before turning the bus around for reads
system.mem_ctrls.wrPerTurnAround::mean      16.009004                       # Writes before turning the bus around for reads
system.mem_ctrls.wrPerTurnAround::gmean     16.008472                       # Writes before turning the bus around for reads
system.mem_ctrls.wrPerTurnAround::stdev      0.136106                       # Writes before turning the bus around for reads
system.mem_ctrls.wrPerTurnAround::16           511810     99.56%     99.56% # Writes before turning the bus around for reads
system.mem_ctrls.wrPerTurnAround::17               23      0.00%     99.56% # Writes before turning the bus around for reads
system.mem_ctrls.wrPerTurnAround::18             2138      0.42%     99.98% # Writes before turning the bus around for reads
system.mem_ctrls.wrPerTurnAround::19              110      0.02%    100.00% # Writes before turning the bus around for reads
system.mem_ctrls.wrPerTurnAround::total        514081                       # Writes before turning the bus around for reads
system.mem_ctrls.bytesReadDRAM              530983168                       # Total number of bytes read from DRAM
system.mem_ctrls.bytesReadWrQ                     192                       # Total number of bytes read from write queue
system.mem_ctrls.bytesWritten               526715200                       # Total number of bytes written to DRAM
system.mem_ctrls.bytesReadSys               530983360                       # Total read bytes from the system interface side
system.mem_ctrls.bytesWrittenSys            526716608                       # Total written bytes from the system interface side
system.mem_ctrls.avgRdBW                       591.14                       # Average DRAM read bandwidth in MiByte/s
system.mem_ctrls.avgWrBW                       586.39                       # Average achieved write bandwidth in MiByte/s
system.mem_ctrls.avgRdBWSys                    591.14                       # Average system read bandwidth in MiByte/s
system.mem_ctrls.avgWrBWSys                    586.39                       # Average system write bandwidth in MiByte/s
system.mem_ctrls.peakBW                      12800.00                       # Theoretical peak bandwidth in MiByte/s
system.mem_ctrls.busUtil                         9.20                       # Data bus utilization in percentage
system.mem_ctrls.busUtilRead                     4.62                       # Data bus utilization in percentage for reads
system.mem_ctrls.busUtilWrite                    4.58                       # Data bus utilization in percentage for writes
system.mem_ctrls.totGap                  898235550500                       # Total gap between requests
system.mem_ctrls.avgGap                      54351.02                       # Average gap between requests
system.mem_ctrls.masterReadBytes::.cpu.inst       100096                       # Per-master bytes read from memory
system.mem_ctrls.masterReadBytes::.cpu.data    530883072                       # Per-master bytes read from memory
system.mem_ctrls.masterWriteBytes::.writebacks    526715200                       # Per-master bytes write to memory
system.mem_ctrls.masterReadRate::.cpu.inst 111435.930140691155                       # Per-master bytes read from memory rate (Bytes/sec)
system.mem_ctrls.masterReadRate::.cpu.data 591027103.223580479622                       # Per-master bytes read from memory rate (Bytes/sec)
system.mem_ctrls.masterWriteRate::.writebacks 586387050.743687748909                       # Per-master bytes write to memory rate (Bytes/sec)
system.mem_ctrls.masterReadAccesses::.cpu.inst         1564                       # Per-master read serviced memory accesses
system.mem_ctrls.masterReadAccesses::.cpu.data      8295051                       # Per-master read serviced memory accesses
system.mem_ctrls.masterWriteAccesses::.writebacks      8229947                       # Per-master write serviced memory accesses
system.mem_ctrls.masterReadTotalLat::.cpu.inst     48830750                       # Per-master read total memory access latency
system.mem_ctrls.masterReadTotalLat::.cpu.data 240244156250                       # Per-master read total memory access latency
system.mem_ctrls.masterWriteTotalLat::.writebacks 21849739812000                       # Per-master write total memory access latency
system.mem_ctrls.masterReadAvgLat::.cpu.inst     31221.71                       # Per-master read average memory access latency
system.mem_ctrls.masterReadAvgLat::.cpu.data     28962.35                       # Per-master read average memory access latency
system.mem_ctrls.masterWriteAvgLat::.writebacks   2654906.50                       # Per-master write average memory access latency
system.mem_ctrls.pageHitRate                    92.55                       # Row buffer hit rate, read and write combined
system.mem_ctrls.rank1.actEnergy           4399460940                       # Energy for activate commands per rank (pJ)
system.mem_ctrls.rank1.preEnergy           2338368945                       # Energy for precharge commands per rank (pJ)
system.mem_ctrls.rank1.readEnergy         29621596620                       # Energy for read commands per rank (pJ)
system.mem_ctrls.rank1.writeEnergy        21482628120                       # Energy for write commands per rank (pJ)
system.mem_ctrls.rank1.refreshEnergy     70906099680.000015                       # Energy for refresh commands per rank (pJ)
system.mem_ctrls.rank1.actBackEnergy     202760791020                       # Energy for active background per rank (pJ)
system.mem_ctrls.rank1.preBackEnergy     174177507840                       # Energy for precharge background per rank (pJ)
system.mem_ctrls.rank1.actPowerDownEnergy            0                       # Energy for active power-down per rank (pJ)
system.mem_ctrls.rank1.prePowerDownEnergy            0                       # Energy for precharge power-down per rank (pJ)
system.mem_ctrls.rank1.selfRefreshEnergy            0                       # Energy for self refresh per rank (pJ)
system.mem_ctrls.rank1.totalEnergy       505686453165                       # Total energy per rank (pJ)
system.mem_ctrls.rank1.averagePower        562.975946                       # Core power per rank (mW)
system.mem_ctrls.rank1.totalIdleTime                0                       # Total Idle time Per DRAM Rank
system.mem_ctrls.rank1.memoryStateTime::IDLE 446824555250                       # Time in different power states
system.mem_ctrls.rank1.memoryStateTime::REF  29994120000                       # Time in different power states
system.mem_ctrls.rank1.memoryStateTime::SREF            0                       # Time in different power states
system.mem_ctrls.rank1.memoryStateTime::PRE_PDN            0                       # Time in different power states
system.mem_ctrls.rank1.memoryStateTime::ACT 421419441250                       # Time in different power states
system.mem_ctrls.rank1.memoryStateTime::ACT_PDN            0                       # Time in different power states
system.mem_ctrls.rank0.actEnergy           4397004780                       # Energy for activate commands per rank (pJ)
system.mem_ctrls.rank0.preEnergy           2337063465                       # Energy for precharge commands per rank (pJ)
system.mem_ctrls.rank0.readEnergy         29616213060                       # Energy for read commands per rank (pJ)
system.mem_ctrls.rank0.writeEnergy        21477580380                       # Energy for write commands per rank (pJ)
system.mem_ctrls.rank0.refreshEnergy     70906099680.000015                       # Energy for refresh commands per rank (pJ)
system.mem_ctrls.rank0.actBackEnergy     202529815620                       # Energy for active background per rank (pJ)
system.mem_ctrls.rank0.preBackEnergy     174372013440                       # Energy for precharge background per rank (pJ)
system.mem_ctrls.rank0.actPowerDownEnergy            0                       # Energy for active power-down per rank (pJ)
system.mem_ctrls.rank0.prePowerDownEnergy            0                       # Energy for precharge power-down per rank (pJ)
system.mem_ctrls.rank0.selfRefreshEnergy            0                       # Energy for self refresh per rank (pJ)
system.mem_ctrls.rank0.totalEnergy       505635790425                       # Total energy per rank (pJ)
system.mem_ctrls.rank0.averagePower        562.919543                       # Core power per rank (mW)
system.mem_ctrls.rank0.totalIdleTime                0                       # Total Idle time Per DRAM Rank
system.mem_ctrls.rank0.memoryStateTime::IDLE 447333526750                       # Time in different power states
system.mem_ctrls.rank0.memoryStateTime::REF  29994120000                       # Time in different power states
system.mem_ctrls.rank0.memoryStateTime::SREF            0                       # Time in different power states
system.mem_ctrls.rank0.memoryStateTime::PRE_PDN            0                       # Time in different power states
system.mem_ctrls.rank0.memoryStateTime::ACT 420910469750                       # Time in different power states
system.mem_ctrls.rank0.memoryStateTime::ACT_PDN            0                       # Time in different power states
system.mem_ctrls.power_state.pwrStateResidencyTicks::UNDEFINED 898238116500                       # Cumulative time (in ticks) in various power states
system.cpu_clk_domain.clock                       500                       # Clock period in ticks
system.cpu.icache.demand_hits::.cpu.inst    139193956                       # number of demand (read+write) hits
system.cpu.icache.demand_hits::total        139193956                       # number of demand (read+write) hits
system.cpu.icache.overall_hits::.cpu.inst    139193956                       # number of overall hits
system.cpu.icache.overall_hits::total       139193956                       # number of overall hits
system.cpu.icache.demand_misses::.cpu.inst         2183                       # number of demand (read+write) misses
system.cpu.icache.demand_misses::total           2183                       # number of demand (read+write) misses
system.cpu.icache.overall_misses::.cpu.inst         2183                       # number of overall misses
system.cpu.icache.overall_misses::total          2183                       # number of overall misses
system.cpu.icache.demand_miss_latency::.cpu.inst    140331500                       # number of demand (read+write) miss cycles
system.cpu.icache.demand_miss_latency::total    140331500                       # number of demand (read+write) miss cycles
system.cpu.icache.overall_miss_latency::.cpu.inst    140331500                       # number of overall miss cycles
system.cpu.icache.overall_miss_latency::total    140331500                       # number of overall miss cycles
system.cpu.icache.demand_accesses::.cpu.inst    139196139                       # number of demand (read+write) accesses
system.cpu.icache.demand_accesses::total    139196139                       # number of demand (read+write) accesses
system.cpu.icache.overall_accesses::.cpu.inst    139196139                       # number of overall (read+write) accesses
system.cpu.icache.overall_accesses::total    139196139                       # number of overall (read+write) accesses
system.cpu.icache.demand_miss_rate::.cpu.inst     0.000016                       # miss rate for demand accesses
system.cpu.icache.demand_miss_rate::total     0.000016                       # miss rate for demand accesses
system.cpu.icache.overall_miss_rate::.cpu.inst     0.000016                       # miss rate for overall accesses
system.cpu.icache.overall_miss_rate::total     0.000016                       # miss rate for overall accesses
system.cpu.icache.demand_avg_miss_latency::.cpu.inst 64283.783784                       # average overall miss latency
system.cpu.icache.demand_avg_miss_latency::total 64283.783784                       # average overall miss latency
system.cpu.icache.overall_avg_miss_latency::.cpu.inst 64283.783784                       # average overall miss latency
system.cpu.icache.overall_avg_miss_latency::total 64283.783784                       # average overall miss latency
system.cpu.icache.blocked_cycles::no_mshrs            0                       # number of cycles access was blocked
system.cpu.icache.blocked_cycles::no_targets            0                       # number of cycles access was blocked
system.cpu.icache.blocked::no_mshrs                 0                       # number of cycles access was blocked
system.cpu.icache.blocked::no_targets               0                       # number of cycles access was blocked
system.cpu.icache.avg_blocked_cycles::no_mshrs          nan                       # average number of cycles each access was blocked
system.cpu.icache.avg_blocked_cycles::no_targets          nan                       # average number of cycles each access was blocked
system.cpu.icache.writebacks::.writebacks          782                       # number of writebacks
system.cpu.icache.writebacks::total               782                       # number of writebacks
system.cpu.icache.demand_mshr_misses::.cpu.inst         2183                       # number of demand (read+write) MSHR misses
system.cpu.icache.demand_mshr_misses::total         2183                       # number of demand (read+write) MSHR misses
system.cpu.icache.overall_mshr_misses::.cpu.inst         2183                       # number of overall MSHR misses
system.cpu.icache.overall_mshr_misses::total         2183                       # number of overall MSHR misses
system.cpu.icache.demand_mshr_miss_latency::.cpu.inst    138148500                       # number of demand (read+write) MSHR miss cycles
[...]
system.cpu.icache.ReadReq_mshr_miss_rate::.cpu.inst     0.000016                       # mshr miss rate for ReadReq accesses
system.cpu.icache.ReadReq_mshr_miss_rate::total     0.000016                       # mshr miss rate for ReadReq accesses
system.cpu.icache.ReadReq_avg_mshr_miss_latency::.cpu.inst 63283.783784                       # average ReadReq mshr miss latency
system.cpu.icache.ReadReq_avg_mshr_miss_latency::total 63283.783784                       # average ReadReq mshr miss latency
system.cpu.icache.power_state.pwrStateResidencyTicks::UNDEFINED 898238116500                       # Cumulative time (in ticks) in various power states
system.cpu.icache.tags.tagsinuse           616.843491                       # Cycle average of tags in use
system.cpu.icache.tags.total_refs           139196139                       # Total number of references to valid blocks.
system.cpu.icache.tags.sampled_refs              2183                       # Sample count of references to valid blocks.
system.cpu.icache.tags.avg_refs          63763.691709                       # Average number of references to valid blocks.
system.cpu.icache.tags.warmup_cycle             87500                       # Cycle when the warmup percentage was hit.
system.cpu.icache.tags.occ_blocks::.cpu.inst   616.843491                       # Average occupied blocks per requestor
system.cpu.icache.tags.occ_percent::.cpu.inst     0.301193                       # Average percentage of cache occupancy
system.cpu.icache.tags.occ_percent::total     0.301193                       # Average percentage of cache occupancy
system.cpu.icache.tags.occ_task_id_blocks::1024         1401                       # Occupied blocks per task id
system.cpu.icache.tags.age_task_id_blocks_1024::3            1                       # Occupied blocks per task id
system.cpu.icache.tags.age_task_id_blocks_1024::4         1400                       # Occupied blocks per task id
system.cpu.icache.tags.occ_task_id_percent::1024     0.684082                       # Percentage of cache occupancy per task id
system.cpu.icache.tags.tag_accesses         278394461                       # Number of tag accesses
system.cpu.icache.tags.data_accesses        278394461                       # Number of data accesses
system.cpu.icache.tags.power_state.pwrStateResidencyTicks::UNDEFINED 898238116500                       # Cumulative time (in ticks) in various power states
system.cpu.dtb.walker.power_state.pwrStateResidencyTicks::UNDEFINED 898238116500                       # Cumulative time (in ticks) in various power states
system.cpu.interrupts.clk_domain.clock           8000                       # Clock period in ticks
system.cpu.itb_walker_cache.blocked_cycles::no_mshrs            0                       # number of cycles access was blocked
system.cpu.itb_walker_cache.blocked_cycles::no_targets            0                       # number of cycles access was blocked
system.cpu.itb_walker_cache.blocked::no_mshrs            0                       # number of cycles access was blocked
system.cpu.itb_walker_cache.blocked::no_targets            0                       # number of cycles access was blocked
system.cpu.itb_walker_cache.avg_blocked_cycles::no_mshrs          nan                       # average number of cycles each access was blocked
system.cpu.itb_walker_cache.avg_blocked_cycles::no_targets          nan                       # average number of cycles each access was blocked
system.cpu.itb_walker_cache.replacements            0                       # number of replacements
system.cpu.itb_walker_cache.power_state.pwrStateResidencyTicks::UNDEFINED 898238116500                       # Cumulative time (in ticks) in various power states
system.cpu.itb_walker_cache.tags.tagsinuse            0                       # Cycle average of tags in use
system.cpu.itb_walker_cache.tags.total_refs            0                       # Total number of references to valid blocks.
system.cpu.itb_walker_cache.tags.sampled_refs            0                       # Sample count of references to valid blocks.
system.cpu.itb_walker_cache.tags.avg_refs          nan                       # Average number of references to valid blocks.
system.cpu.itb_walker_cache.tags.warmup_cycle            0                       # Cycle when the warmup percentage was hit.
system.cpu.itb_walker_cache.tags.tag_accesses            0                       # Number of tag accesses
system.cpu.itb_walker_cache.tags.data_accesses            0                       # Number of data accesses
system.cpu.itb_walker_cache.tags.power_state.pwrStateResidencyTicks::UNDEFINED 898238116500                       # Cumulative time (in ticks) in various power states
system.cpu.itb.walker.power_state.pwrStateResidencyTicks::UNDEFINED 898238116500                       # Cumulative time (in ticks) in various power states
system.cpu.dtb_walker_cache.blocked_cycles::no_mshrs            0                       # number of cycles access was blocked
system.cpu.dtb_walker_cache.blocked_cycles::no_targets            0                       # number of cycles access was blocked
system.cpu.dtb_walker_cache.blocked::no_mshrs            0                       # number of cycles access was blocked
system.cpu.dtb_walker_cache.blocked::no_targets            0                       # number of cycles access was blocked
system.cpu.dtb_walker_cache.avg_blocked_cycles::no_mshrs          nan                       # average number of cycles each access was blocked
system.cpu.dtb_walker_cache.avg_blocked_cycles::no_targets          nan                       # average number of cycles each access was blocked
system.cpu.dtb_walker_cache.replacements            0                       # number of replacements
system.cpu.dtb_walker_cache.power_state.pwrStateResidencyTicks::UNDEFINED 898238116500                       # Cumulative time (in ticks) in various power states
system.cpu.dtb_walker_cache.tags.tagsinuse            0                       # Cycle average of tags in use
system.cpu.dtb_walker_cache.tags.total_refs            0                       # Total number of references to valid blocks.
system.cpu.dtb_walker_cache.tags.sampled_refs            0                       # Sample count of references to valid blocks.
system.cpu.dtb_walker_cache.tags.avg_refs          nan                       # Average number of references to valid blocks.
system.cpu.dtb_walker_cache.tags.warmup_cycle            0                       # Cycle when the warmup percentage was hit.
system.cpu.dtb_walker_cache.tags.tag_accesses            0                       # Number of tag accesses
system.cpu.dtb_walker_cache.tags.data_accesses            0                       # Number of data accesses
system.cpu.dtb_walker_cache.tags.power_state.pwrStateResidencyTicks::UNDEFINED 898238116500                       # Cumulative time (in ticks) in various power states
system.cpu.dcache.demand_hits::.cpu.data     76850743                       # number of demand (read+write) hits
system.cpu.dcache.demand_hits::total         76850743                       # number of demand (read+write) hits
system.cpu.dcache.overall_hits::.cpu.data     76850743                       # number of overall hits
system.cpu.dcache.overall_hits::total        76850743                       # number of overall hits
system.cpu.dcache.demand_misses::.cpu.data      8298580                       # number of demand (read+write) misses
system.cpu.dcache.demand_misses::total        8298580                       # number of demand (read+write) misses
system.cpu.dcache.overall_misses::.cpu.data      8298580                       # number of overall misses
system.cpu.dcache.overall_misses::total       8298580                       # number of overall misses
system.cpu.dcache.demand_miss_latency::.cpu.data 682053352000                       # number of demand (read+write) miss cycles
system.cpu.dcache.demand_miss_latency::total 682053352000                       # number of demand (read+write) miss cycles
system.cpu.dcache.overall_miss_latency::.cpu.data 682053352000                       # number of overall miss cycles
system.cpu.dcache.overall_miss_latency::total 682053352000                       # number of overall miss cycles
system.cpu.dcache.demand_accesses::.cpu.data     85149323                       # number of demand (read+write) accesses
system.cpu.dcache.demand_accesses::total     85149323                       # number of demand (read+write) accesses
system.cpu.dcache.overall_accesses::.cpu.data     85149323                       # number of overall (read+write) accesses
system.cpu.dcache.overall_accesses::total     85149323                       # number of overall (read+write) accesses
system.cpu.dcache.demand_miss_rate::.cpu.data     0.097459                       # miss rate for demand accesses
system.cpu.dcache.demand_miss_rate::total     0.097459                       # miss rate for demand accesses
system.cpu.dcache.overall_miss_rate::.cpu.data     0.097459                       # miss rate for overall accesses
system.cpu.dcache.overall_miss_rate::total     0.097459                       # miss rate for overall accesses
system.cpu.dcache.demand_avg_miss_latency::.cpu.data 82189.163929                       # average overall miss latency
system.cpu.dcache.demand_avg_miss_latency::total 82189.163929                       # average overall miss latency
system.cpu.dcache.overall_avg_miss_latency::.cpu.data 82189.163929                       # average overall miss latency
system.cpu.dcache.overall_avg_miss_latency::total 82189.163929                       # average overall miss latency
system.cpu.dcache.blocked_cycles::no_mshrs            0                       # number of cycles access was blocked
system.cpu.dcache.blocked_cycles::no_targets            0                       # number of cycles access was blocked
system.cpu.dcache.blocked::no_mshrs                 0                       # number of cycles access was blocked
system.cpu.dcache.blocked::no_targets               0                       # number of cycles access was blocked
system.cpu.dcache.avg_blocked_cycles::no_mshrs          nan                       # average number of cycles each access was blocked
system.cpu.dcache.avg_blocked_cycles::no_targets          nan                       # average number of cycles each access was blocked
system.cpu.dcache.writebacks::.writebacks      8294501                       # number of writebacks
system.cpu.dcache.writebacks::total           8294501                       # number of writebacks
system.cpu.dcache.demand_mshr_misses::.cpu.data      8298580                       # number of demand (read+write) MSHR misses
system.cpu.dcache.demand_mshr_misses::total      8298580                       # number of demand (read+write) MSHR misses
system.cpu.dcache.overall_mshr_misses::.cpu.data      8298580                       # number of overall MSHR misses
system.cpu.dcache.overall_mshr_misses::total      8298580                       # number of overall MSHR misses
system.cpu.dcache.demand_mshr_miss_latency::.cpu.data 673754772000                       # number of demand (read+write) MSHR miss cycles
system.cpu.dcache.demand_mshr_miss_latency::total 673754772000                       # number of demand (read+write) MSHR miss cycles
system.cpu.dcache.overall_mshr_miss_latency::.cpu.data 673754772000                       # number of overall MSHR miss cycles
system.cpu.dcache.overall_mshr_miss_latency::total 673754772000                       # number of overall MSHR miss cycles
system.cpu.dcache.demand_mshr_miss_rate::.cpu.data     0.097459                       # mshr miss rate for demand accesses
system.cpu.dcache.demand_mshr_miss_rate::total     0.097459                       # mshr miss rate for demand accesses
system.cpu.dcache.overall_mshr_miss_rate::.cpu.data     0.097459                       # mshr miss rate for overall accesses
system.cpu.dcache.overall_mshr_miss_rate::total     0.097459                       # mshr miss rate for overall accesses
system.cpu.dcache.demand_avg_mshr_miss_latency::.cpu.data 81189.163929                       # average overall mshr miss latency
system.cpu.dcache.demand_avg_mshr_miss_latency::total 81189.163929                       # average overall mshr miss latency
system.cpu.dcache.overall_avg_mshr_miss_latency::.cpu.data 81189.163929                       # average overall mshr miss latency
system.cpu.dcache.overall_avg_mshr_miss_latency::total 81189.163929                       # average overall mshr miss latency
system.cpu.dcache.replacements                8296532                       # number of replacements
system.cpu.dcache.ReadReq_hits::.cpu.data     14656418                       # number of ReadReq hits
system.cpu.dcache.ReadReq_hits::total        14656418                       # number of ReadReq hits
system.cpu.dcache.ReadReq_misses::.cpu.data         7782                       # number of ReadReq misses
system.cpu.dcache.ReadReq_misses::total          7782                       # number of ReadReq misses
system.cpu.dcache.ReadReq_miss_latency::.cpu.data    526354500                       # number of ReadReq miss cycles
system.cpu.dcache.ReadReq_miss_latency::total    526354500                       # number of ReadReq miss cycles
system.cpu.dcache.ReadReq_accesses::.cpu.data     14664200                       # number of ReadReq accesses(hits+misses)
system.cpu.dcache.ReadReq_accesses::total     14664200                       # number of ReadReq accesses(hits+misses)
system.cpu.dcache.ReadReq_miss_rate::.cpu.data     0.000531                       # miss rate for ReadReq accesses
system.cpu.dcache.ReadReq_miss_rate::total     0.000531                       # miss rate for ReadReq accesses
system.cpu.dcache.ReadReq_avg_miss_latency::.cpu.data 67637.432537                       # average ReadReq miss latency
system.cpu.dcache.ReadReq_avg_miss_latency::total 67637.432537                       # average ReadReq miss latency
system.cpu.dcache.ReadReq_mshr_misses::.cpu.data         7782                       # number of ReadReq MSHR misses
system.cpu.dcache.ReadReq_mshr_misses::total         7782                       # number of ReadReq MSHR misses
system.cpu.dcache.ReadReq_mshr_miss_latency::.cpu.data    518572500                       # number of ReadReq MSHR miss cycles
system.cpu.dcache.ReadReq_mshr_miss_latency::total    518572500                       # number of ReadReq MSHR miss cycles
system.cpu.dcache.ReadReq_mshr_miss_rate::.cpu.data     0.000531                       # mshr miss rate for ReadReq accesses
system.cpu.dcache.ReadReq_mshr_miss_rate::total     0.000531                       # mshr miss rate for ReadReq accesses
system.cpu.dcache.ReadReq_avg_mshr_miss_latency::.cpu.data 66637.432537                       # average ReadReq mshr miss latency
system.cpu.dcache.ReadReq_avg_mshr_miss_latency::total 66637.432537                       # average ReadReq mshr miss latency
system.cpu.dcache.WriteReq_hits::.cpu.data     62194325                       # number of WriteReq hits
system.cpu.dcache.WriteReq_hits::total       62194325                       # number of WriteReq hits
system.cpu.dcache.WriteReq_misses::.cpu.data      8290798                       # number of WriteReq misses
system.cpu.dcache.WriteReq_misses::total      8290798                       # number of WriteReq misses
system.cpu.dcache.WriteReq_miss_latency::.cpu.data 681526997500                       # number of WriteReq miss cycles
system.cpu.dcache.WriteReq_miss_latency::total 681526997500                       # number of WriteReq miss cycles
system.cpu.dcache.WriteReq_accesses::.cpu.data     70485123                       # number of WriteReq accesses(hits+misses)
system.cpu.dcache.WriteReq_accesses::total     70485123                       # number of WriteReq accesses(hits+misses)
system.cpu.dcache.WriteReq_miss_rate::.cpu.data     0.117625                       # miss rate for WriteReq accesses
system.cpu.dcache.WriteReq_miss_rate::total     0.117625                       # miss rate for WriteReq accesses
system.cpu.dcache.WriteReq_avg_miss_latency::.cpu.data 82202.822635                       # average WriteReq miss latency
system.cpu.dcache.WriteReq_avg_miss_latency::total 82202.822635                       # average WriteReq miss latency
system.cpu.dcache.WriteReq_mshr_misses::.cpu.data      8290798                       # number of WriteReq MSHR misses
system.cpu.dcache.WriteReq_mshr_misses::total      8290798                       # number of WriteReq MSHR misses
system.cpu.dcache.WriteReq_mshr_miss_latency::.cpu.data 673236199500                       # number of WriteReq MSHR miss cycles
system.cpu.dcache.WriteReq_mshr_miss_latency::total 673236199500                       # number of WriteReq MSHR miss cycles
system.cpu.dcache.WriteReq_mshr_miss_rate::.cpu.data     0.117625                       # mshr miss rate for WriteReq accesses
system.cpu.dcache.WriteReq_mshr_miss_rate::total     0.117625                       # mshr miss rate for WriteReq accesses
system.cpu.dcache.WriteReq_avg_mshr_miss_latency::.cpu.data 81202.822635                       # average WriteReq mshr miss latency
system.cpu.dcache.WriteReq_avg_mshr_miss_latency::total 81202.822635                       # average WriteReq mshr miss latency
system.cpu.dcache.power_state.pwrStateResidencyTicks::UNDEFINED 898238116500                       # Cumulative time (in ticks) in various power states
system.cpu.dcache.tags.tagsinuse          2043.541352                       # Cycle average of tags in use
system.cpu.dcache.tags.total_refs            85149323                       # Total number of references to valid blocks.
system.cpu.dcache.tags.sampled_refs           8298580                       # Sample count of references to valid blocks.
system.cpu.dcache.tags.avg_refs             10.260710                       # Average number of references to valid blocks.
system.cpu.dcache.tags.warmup_cycle            175500                       # Cycle when the warmup percentage was hit.
system.cpu.dcache.tags.occ_blocks::.cpu.data  2043.541352                       # Average occupied blocks per requestor
system.cpu.dcache.tags.occ_percent::.cpu.data     0.997823                       # Average percentage of cache occupancy
system.cpu.dcache.tags.occ_percent::total     0.997823                       # Average percentage of cache occupancy
system.cpu.dcache.tags.occ_task_id_blocks::1024         2048                       # Occupied blocks per task id
system.cpu.dcache.tags.age_task_id_blocks_1024::0            5                       # Occupied blocks per task id
system.cpu.dcache.tags.age_task_id_blocks_1024::1            9                       # Occupied blocks per task id
system.cpu.dcache.tags.age_task_id_blocks_1024::2           84                       # Occupied blocks per task id
system.cpu.dcache.tags.age_task_id_blocks_1024::3          391                       # Occupied blocks per task id
system.cpu.dcache.tags.age_task_id_blocks_1024::4         1559                       # Occupied blocks per task id
system.cpu.dcache.tags.occ_task_id_percent::1024            1                       # Percentage of cache occupancy per task id
system.cpu.dcache.tags.tag_accesses         178597226                       # Number of tag accesses
system.cpu.dcache.tags.data_accesses        178597226                       # Number of data accesses
system.cpu.dcache.tags.power_state.pwrStateResidencyTicks::UNDEFINED 898238116500                       # Cumulative time (in ticks) in various power states
system.cpu.power_state.numTransitions               1                       # Number of power state transitions
system.cpu.power_state.pwrStateResidencyTicks::ON 898238116500                       # Cumulative time (in ticks) in various power states

---------- End Simulation Statistics   ----------
